3BYO - minimized
                    3D
 Schrodinger Suite 2021-3.
  0  0  0     0  0            999 V3000
M  V30 BEGIN CTAB
M  V30 COUNTS 4355 4409 0 0 0
M  V30 BEGIN ATOM
M  V30 1 N  1.4603 29.5343 91.3083 0 CHG=1
M  V30 2 C  1.1444 28.1754 91.8830 0 CFG=2
M  V30 3 C  2.0835 27.9209 93.1030 0
M  V30 4 O  3.1532 28.5296 93.2300 0
M  V30 5 C  1.2792 27.0663 90.8023 0
M  V30 6 C  0.1919 27.1296 89.7100 0
M  V30 7 C  0.0133 25.8126 88.9403 0
M  V30 8 C  1.2393 25.3959 88.1136 0
M  V30 9 N  1.0029 24.1174 87.4248 0 CHG=1
M  V30 10 N  1.6767 26.9802 93.9940 0
M  V30 11 C  2.5525 26.4885 95.0769 0 CFG=2
M  V30 12 C  3.7647 25.7134 94.5331 0
M  V30 13 O  3.6768 25.1476 93.4436 0
M  V30 14 C  1.6299 25.5863 95.9072 0
M  V30 15 C  0.5822 25.0923 94.9272 0
M  V30 16 C  0.3738 26.3031 94.0273 0
M  V30 17 N  4.8711 25.7251 95.2954 0
M  V30 18 C  6.1749 25.1869 94.8913 0 CFG=2
M  V30 19 C  6.1653 23.7040 94.4589 0
M  V30 20 O  6.9250 23.3494 93.5611 0
M  V30 21 C  7.2167 25.4733 95.9951 0
M  V30 22 C  7.0752 24.7554 97.3080 0
M  V30 23 C  6.4688 25.2531 98.4096 0
M  V30 24 C  7.4964 23.3999 97.6631 0
M  V30 25 N  6.5047 24.3171 99.4222 0
M  V30 26 C  7.1161 23.1486 99.0166 0
M  V30 27 C  8.1584 22.3499 96.9813 0
M  V30 28 C  7.3691 21.9211 99.6546 0
M  V30 29 C  8.4139 21.1137 97.6078 0
M  V30 30 C  8.0194 20.8973 98.9419 0
M  V30 31 N  5.2848 22.8777 95.0539 0
M  V30 32 C  5.1307 21.4589 94.7103 0 CFG=2
M  V30 33 C  4.4039 21.2009 93.3688 0
M  V30 34 O  4.4534 20.0686 92.8904 0
M  V30 35 C  4.4783 20.7014 95.8880 0
M  V30 36 C  3.0973 21.1158 96.3107 0
M  V30 37 C  1.9437 20.6574 95.7750 0
M  V30 38 C  2.7033 22.0994 97.3159 0
M  V30 39 N  0.8701 21.2860 96.3705 0
M  V30 40 C  1.2769 22.1790 97.3397 0
M  V30 41 C  3.4056 22.9340 98.2154 0
M  V30 42 C  0.5859 23.0373 98.2138 0
M  V30 43 C  2.7259 23.7995 99.0969 0
M  V30 44 C  1.3180 23.8508 99.0986 0
M  V30 45 N  3.7688 22.2337 92.7845 0
M  V30 46 C  3.1164 22.2009 91.4686 0 CFG=2
M  V30 47 C  3.8430 23.0675 90.4236 0
M  V30 48 O  3.5797 22.8948 89.2331 0
M  V30 49 C  1.6613 22.6967 91.5955 0
M  V30 50 C  0.7897 21.8386 92.5348 0
M  V30 51 C  -0.6912 22.2427 92.6193 0
M  V30 52 O  -1.0786 23.2737 92.0224 0
M  V30 53 O  -1.4252 21.4987 93.3060 0 CHG=-1
M  V30 54 N  4.7058 23.9950 90.8743 0
M  V30 55 C  5.4322 24.9591 90.0489 0 CFG=2
M  V30 56 C  6.4787 24.2459 89.1716 0
M  V30 57 O  7.3246 23.5267 89.7040 0
M  V30 58 C  6.0786 26.0491 90.9447 0
M  V30 59 C  6.7821 27.2242 90.2398 0
M  V30 60 O  6.3990 27.5633 89.0980 0
M  V30 61 O  7.6103 27.8717 90.9166 0 CHG=-1
M  V30 62 N  6.4026 24.4843 87.8514 0
M  V30 63 C  7.3078 23.9504 86.8300 0 CFG=2
M  V30 64 C  8.7701 24.3871 87.0153 0
M  V30 65 O  9.6695 23.5946 86.7372 0
M  V30 66 C  6.8272 24.3566 85.4164 0
M  V30 67 C  5.4492 23.7917 84.9956 0
M  V30 68 C  4.1922 24.5779 85.4112 0
M  V30 69 O  4.3034 25.6712 86.0112 0
M  V30 70 O  3.1003 24.0493 85.1091 0 CHG=-1
M  V30 71 N  8.9717 25.6310 87.4796 0
M  V30 72 C  10.2889 26.2120 87.7196 0 CFG=2
M  V30 73 C  10.9293 25.7967 89.0534 0
M  V30 74 O  12.1444 25.9367 89.1642 0
M  V30 75 C  10.2165 27.7430 87.5747 0
M  V30 76 C  10.0568 28.2405 86.1672 0
M  V30 77 C  11.0835 28.5057 85.3288 0
M  V30 78 C  8.8421 28.4766 85.3893 0
M  V30 79 N  10.5996 28.9374 84.1133 0
M  V30 80 C  9.2208 28.9416 84.0909 0
M  V30 81 C  7.4557 28.3573 85.6440 0
M  V30 82 C  8.2752 29.2910 83.1106 0
M  V30 83 C  6.4977 28.6999 84.6680 0
M  V30 84 C  6.9048 29.1729 83.4052 0
M  V30 85 N  10.1639 25.2767 90.0311 0
M  V30 86 C  10.7426 24.7968 91.2894 0 CFG=2
M  V30 87 C  11.5842 23.5289 91.0594 0
M  V30 88 O  11.0684 22.5514 90.5157 0
M  V30 89 C  9.6497 24.5657 92.3516 0
M  V30 90 C  10.1972 24.1782 93.7546 0
M  V30 91 C  10.8664 25.3089 94.5595 0
M  V30 92 O  10.6517 26.4956 94.2332 0
M  V30 93 O  11.5742 24.9730 95.5335 0 CHG=-1
M  V30 94 N  12.8518 23.5813 91.4949 0
M  V30 95 C  13.7947 22.4638 91.4512 0 CFG=2
M  V30 96 C  14.3834 22.2362 92.8625 0
M  V30 97 O  14.4961 23.2001 93.6228 0
M  V30 98 C  14.9695 22.7393 90.4630 0
M  V30 99 C  14.4662 22.8573 89.0131 0
M  V30 100 C  15.8944 23.9196 90.8362 0
M  V30 101 N  14.7978 20.9865 93.1855 0
M  V30 102 C  15.6657 20.7157 94.3505 0 CFG=2
M  V30 103 C  17.0191 21.4452 94.2574 0
M  V30 104 O  17.5933 21.5120 93.1706 0
M  V30 105 C  15.8564 19.1852 94.3278 0
M  V30 106 C  14.7364 18.6453 93.4584 0
M  V30 107 C  14.5105 19.7562 92.4467 0
M  V30 108 N  17.5096 21.9636 95.3954 0
M  V30 109 C  18.8107 22.6384 95.5105 0 CFG=2
M  V30 110 C  20.0085 21.7355 95.1403 0
M  V30 111 O  21.0125 22.2398 94.6406 0
M  V30 112 C  18.9496 23.1953 96.9432 0
M  V30 113 C  20.1502 24.1453 97.1585 0
M  V30 114 C  20.4326 24.5097 98.6286 0
M  V30 115 N  19.2573 25.0519 99.3343 0
M  V30 116 C  18.6723 26.2518 99.1696 0
M  V30 117 N  19.1305 27.1649 98.3033 0
M  V30 118 N  17.5897 26.5420 99.8971 0 CHG=1
M  V30 119 N  19.8562 20.4213 95.3719 0
M  V30 120 C  20.8198 19.3534 95.1062 0 CFG=2
M  V30 121 C  21.1765 19.1716 93.6174 0
M  V30 122 O  22.2443 18.6307 93.3317 0
M  V30 123 C  20.2977 18.0259 95.7088 0
M  V30 124 C  20.1364 18.0193 97.2528 0
M  V30 125 C  18.8973 18.7201 97.8455 0
M  V30 126 O  17.8947 18.9026 97.1191 0
M  V30 127 O  18.9756 19.0746 99.0416 0 CHG=-1
M  V30 128 N  20.3122 19.6497 92.7034 0
M  V30 129 C  20.5768 19.7041 91.2623 0 CFG=2
M  V30 130 C  21.6696 20.7315 90.8848 0
M  V30 131 O  22.3080 20.5546 89.8502 0
M  V30 132 C  19.2956 20.0663 90.4572 0 CFG=2
M  V30 133 O  18.8629 21.3982 90.6685 0
M  V30 134 C  18.1165 19.1150 90.7088 0
M  V30 135 N  21.8673 21.7692 91.7148 0
M  V30 136 C  22.7572 22.8941 91.4403 0 CFG=2
M  V30 137 C  24.1166 22.7070 92.1251 0
M  V30 138 O  24.1761 22.2875 93.2812 0
M  V30 139 C  22.0850 24.1913 91.9359 0
M  V30 140 C  20.7805 24.5422 91.1895 0
M  V30 141 C  20.0012 25.6344 91.9323 0
M  V30 142 C  21.0318 24.9127 89.7177 0
M  V30 143 N  25.1739 23.0804 91.3913 0
M  V30 144 C  26.5555 23.1338 91.8536 0 CFG=2
M  V30 145 C  27.1199 24.4952 91.4345 0
M  V30 146 O  27.4059 24.6752 90.2542 0
M  V30 147 C  27.3450 21.9550 91.2340 0
M  V30 148 C  28.8503 21.9472 91.5737 0
M  V30 149 C  29.6278 20.8643 90.8136 0
M  V30 150 C  31.1311 20.9007 91.1350 0
M  V30 151 N  31.8818 19.8935 90.3648 0 CHG=1
M  V30 152 N  27.2749 25.4154 92.3984 0
M  V30 153 C  27.8725 26.7392 92.2013 0 CFG=2
M  V30 154 C  29.4069 26.5970 92.1445 0
M  V30 155 O  29.9843 26.0053 93.0572 0
M  V30 156 C  27.4268 27.6813 93.3471 0
M  V30 157 C  25.9672 28.1992 93.2547 0
M  V30 158 C  24.8992 27.0931 93.3900 0
M  V30 159 C  25.7172 29.3342 94.2719 0
M  V30 160 N  30.0252 27.1090 91.0651 0
M  V30 161 C  31.4354 26.8754 90.7290 0 CFG=2
M  V30 162 C  32.2941 28.1521 90.8189 0
M  V30 163 O  33.3543 28.0981 91.4415 0
M  V30 164 C  31.5765 26.2517 89.3053 0
M  V30 165 C  33.0131 26.2061 88.7371 0
M  V30 166 C  30.9817 24.8333 89.2784 0
M  V30 167 N  31.8442 29.2575 90.2011 0
M  V30 168 C  32.5904 30.5171 90.1287 0 CFG=2
M  V30 169 C  31.6455 31.6949 90.3660 0
M  V30 170 O  30.6456 31.8056 89.6634 0
M  V30 171 C  33.3093 30.6146 88.7631 0
M  V30 172 C  34.0031 31.9717 88.4742 0
M  V30 173 C  34.6983 32.0819 87.1063 0
M  V30 174 O  34.8213 31.0561 86.3989 0
M  V30 175 O  35.1006 33.2214 86.7825 0 CHG=-1
M  V30 176 N  31.9967 32.5698 91.3204 0
M  V30 177 C  31.2290 33.7683 91.6449 0 CFG=2
M  V30 178 C  31.4640 34.8735 90.5992 0
M  V30 179 O  32.5908 35.3487 90.4595 0
M  V30 180 C  31.5760 34.2074 93.0779 0
M  V30 181 C  30.6607 35.3211 93.6208 0
M  V30 182 C  30.8898 35.6343 95.1076 0
M  V30 183 N  32.1943 36.2758 95.3517 0
M  V30 184 C  32.7270 36.6168 96.5404 0
M  V30 185 N  32.0846 36.4186 97.7012 0
M  V30 186 N  33.9439 37.1740 96.5648 0 CHG=1
M  V30 187 N  30.3872 35.2543 89.8951 0
M  V30 188 C  30.3685 36.3091 88.8791 0 CFG=2
M  V30 189 C  30.2501 37.7157 89.4925 0
M  V30 190 O  30.7403 38.6678 88.8853 0
M  V30 191 C  29.1856 36.0765 87.9111 0
M  V30 192 C  29.1878 34.7243 87.1659 0
M  V30 193 C  27.8936 34.5597 86.3426 0
M  V30 194 C  30.4554 34.5019 86.3143 0
M  V30 195 N  29.5992 37.8271 90.6622 0
M  V30 196 C  29.4031 39.0992 91.3449 0
M  V30 197 C  28.9995 38.8532 92.8020 0
M  V30 198 O  28.5255 37.7762 93.1673 0
M  V30 199 N  29.1698 39.9013 93.6196 0
M  V30 200 C  28.7834 39.9631 95.0259 0 CFG=2
M  V30 201 C  28.3732 41.4007 95.3542 0
M  V30 202 O  29.0355 42.3376 94.9044 0
M  V30 203 C  29.9510 39.5011 95.9113 0
M  V30 204 N  27.2906 41.5466 96.1291 0
M  V30 205 C  26.7440 42.8500 96.4821 0
M  V30 206 C  25.9357 42.7527 97.7775 0
M  V30 207 O  25.9320 41.7310 98.4678 0
M  V30 208 N  25.2519 43.8657 98.0877 0
M  V30 209 C  24.4101 44.0884 99.2656 0 CFG=2
M  V30 210 C  23.2784 43.0601 99.4476 0
M  V30 211 O  22.9980 42.6785 100.5837 0
M  V30 212 C  23.8748 45.5375 99.1843 0
M  V30 213 C  22.8880 45.9647 100.2937 0
M  V30 214 C  22.4830 47.4397 100.1980 0
M  V30 215 O  22.7045 48.1007 99.1853 0
M  V30 216 N  21.8624 47.9608 101.2574 0
M  V30 217 N  22.6618 42.6432 98.3290 0
M  V30 218 C  21.4735 41.7879 98.3074 0 CFG=2
M  V30 219 C  21.7831 40.2935 98.0971 0
M  V30 220 O  20.8448 39.5022 98.0009 0
M  V30 221 C  20.4753 42.3316 97.2661 0
M  V30 222 C  20.0749 43.7756 97.5186 0
M  V30 223 C  19.2679 44.1016 98.6289 0
M  V30 224 C  20.6364 44.8171 96.7491 0
M  V30 225 C  18.9972 45.4308 98.9242 0
M  V30 226 C  20.3510 46.1400 97.0594 0
M  V30 227 C  19.5327 46.4447 98.1398 0
M  V30 228 N  23.0754 39.9303 98.0635 0
M  V30 229 C  23.5496 38.5654 97.8627 0
M  V30 230 C  24.4784 38.5107 96.6472 0
M  V30 231 O  24.9869 39.5316 96.1801 0
M  V30 232 N  24.7434 37.2786 96.1920 0
M  V30 233 C  25.7714 36.9440 95.2058 0 CFG=2
M  V30 234 C  25.1483 36.2980 93.9648 0
M  V30 235 O  24.0630 35.7255 94.0554 0
M  V30 236 C  26.7690 35.9665 95.8631 0
M  V30 237 C  27.4534 36.5354 97.1295 0
M  V30 238 C  28.4032 35.5754 97.8616 0
M  V30 239 O  29.0379 36.0560 98.8250 0
M  V30 240 O  28.5073 34.3938 97.4653 0 CHG=-1
M  V30 241 N  25.8778 36.3581 92.8402 0
M  V30 242 C  25.5396 35.6297 91.6191 0 CFG=2
M  V30 243 C  26.7439 34.7795 91.1999 0
M  V30 244 O  27.8770 35.2519 91.2696 0
M  V30 245 C  25.1421 36.5556 90.4384 0
M  V30 246 C  24.7238 35.7530 89.1864 0
M  V30 247 C  24.0146 37.5171 90.8517 0
M  V30 248 N  26.4575 33.5326 90.8019 0
M  V30 249 C  27.4377 32.5047 90.4792 0 CFG=2
M  V30 250 C  27.1219 31.8557 89.1323 0
M  V30 251 O  25.9585 31.5988 88.8387 0
M  V30 252 C  27.4062 31.4118 91.5700 0
M  V30 253 C  27.9226 31.7751 92.9305 0
M  V30 254 C  27.3402 32.6233 93.8102 0
M  V30 255 C  29.1350 31.2931 93.5855 0
M  V30 256 N  28.1154 32.7109 94.9467 0
M  V30 257 C  29.2319 31.9081 94.8689 0
M  V30 258 C  30.1630 30.3886 93.2307 0
M  V30 259 C  30.2968 31.6497 95.7493 0
M  V30 260 C  31.2381 30.1213 94.1014 0
M  V30 261 C  31.3076 30.7520 95.3588 0
M  V30 262 N  28.1862 31.4855 88.4070 0
M  V30 263 C  28.1647 30.4468 87.3858 0 CFG=2
M  V30 264 C  28.1307 29.0902 88.1027 0
M  V30 265 O  28.9599 28.8528 88.9828 0
M  V30 266 C  29.4075 30.5917 86.4784 0
M  V30 267 C  29.4474 29.6418 85.2620 0
M  V30 268 S  29.9434 27.9109 85.5271 0
M  V30 269 C  31.7143 28.1113 85.8425 0
M  V30 270 N  27.1861 28.2341 87.7025 0
M  V30 271 C  27.0581 26.8831 88.2237 0
M  V30 272 C  26.6221 25.9378 87.1039 0
M  V30 273 O  26.5916 26.3082 85.9292 0
M  V30 274 N  26.2902 24.6988 87.4974 0
M  V30 275 C  25.7964 23.6445 86.6162 0 CFG=2
M  V30 276 C  24.5627 22.9815 87.2352 0
M  V30 277 O  24.6321 22.4974 88.3649 0
M  V30 278 C  26.8966 22.5984 86.3500 0
M  V30 279 C  28.0571 23.1118 85.5205 0
M  V30 280 C  27.9732 23.1152 84.1132 0
M  V30 281 C  29.2138 23.6088 86.1533 0
M  V30 282 C  29.0377 23.6217 83.3435 0
M  V30 283 C  30.2771 24.1202 85.3845 0
M  V30 284 C  30.1876 24.1305 83.9786 0
M  V30 285 O  31.2118 24.6355 83.2318 0
M  V30 286 N  23.4781 22.9377 86.4474 0
M  V30 287 C  22.2671 22.1709 86.7134 0 CFG=2
M  V30 288 C  22.4586 20.7375 86.1872 0
M  V30 289 O  22.7038 20.5536 84.9932 0
M  V30 290 C  21.0633 22.8907 86.0695 0
M  V30 291 C  19.7398 22.1574 86.2062 0
M  V30 292 C  19.0011 22.2552 87.4030 0
M  V30 293 C  19.2550 21.3556 85.1506 0
M  V30 294 C  17.7948 21.5446 87.5493 0
M  V30 295 C  18.0477 20.6456 85.2983 0
M  V30 296 C  17.3201 20.7343 86.5013 0
M  V30 297 O  16.1583 20.0362 86.6572 0
M  V30 298 N  22.3762 19.7608 87.1070 0
M  V30 299 C  22.6114 18.3206 86.9095 0 CFG=2
M  V30 300 C  24.0172 18.0080 86.3449 0
M  V30 301 O  24.1880 17.0257 85.6227 0
M  V30 302 C  21.4545 17.6727 86.0982 0
M  V30 303 C  20.0963 17.6795 86.8153 0
M  V30 304 O  20.0111 17.8696 88.0263 0
M  V30 305 N  19.0192 17.4390 86.0661 0
M  V30 306 N  24.9997 18.8524 86.7086 0
M  V30 307 C  26.4231 18.7002 86.4097 0
M  V30 308 C  26.8191 18.9943 84.9517 0
M  V30 309 O  28.0126 18.9315 84.6607 0
M  V30 310 N  25.8685 19.3031 84.0488 0
M  V30 311 C  26.1171 19.4217 82.6061 0 CFG=2
M  V30 312 C  25.6035 20.7360 82.0003 0
M  V30 313 O  26.2955 21.2932 81.1480 0
M  V30 314 C  25.5040 18.2106 81.8725 0
M  V30 315 C  26.1512 16.8847 82.1942 0
M  V30 316 N  25.4495 15.8121 82.7175 0
M  V30 317 C  27.4493 16.4429 82.0546 0
M  V30 318 C  26.3177 14.8086 82.8705 0
M  V30 319 N  27.5505 15.1191 82.4878 0
M  V30 320 N  24.4179 21.2099 82.4217 0
M  V30 321 C  23.7884 22.4123 81.8661 0 CFG=2
M  V30 322 C  24.2834 23.6588 82.6187 0
M  V30 323 O  23.9259 23.8385 83.7799 0
M  V30 324 C  22.2407 22.3379 81.9746 0 CFG=2
M  V30 325 O  21.7833 21.2398 81.2106 0
M  V30 326 C  21.4833 23.5897 81.4904 0
M  V30 327 N  25.1058 24.4812 81.9468 0
M  V30 328 C  25.7270 25.6849 82.5066 0 CFG=2
M  V30 329 C  24.6815 26.7991 82.7205 0
M  V30 330 O  23.9542 27.1315 81.7836 0
M  V30 331 C  26.8718 26.1146 81.5645 0
M  V30 332 C  27.9116 27.0547 82.1990 0
M  V30 333 C  29.1027 27.3038 81.2555 0
M  V30 334 C  30.2898 27.9887 81.9498 0
M  V30 335 N  31.4056 28.2395 81.0208 0 CHG=1
M  V30 336 N  24.6092 27.3225 83.9550 0
M  V30 337 C  23.5756 28.2572 84.4141 0 CFG=2
M  V30 338 C  24.1684 29.4049 85.2520 0
M  V30 339 O  25.2583 29.2617 85.8032 0
M  V30 340 C  22.5095 27.5359 85.2910 0
M  V30 341 C  21.6348 26.5976 84.4545 0
M  V30 342 C  23.0694 26.7919 86.5212 0
M  V30 343 N  23.4116 30.5116 85.3443 0
M  V30 344 C  23.6799 31.6383 86.2362 0 CFG=2
M  V30 345 C  22.6694 31.5993 87.3940 0
M  V30 346 O  21.4702 31.7006 87.1453 0
M  V30 347 C  23.5696 32.9508 85.4441 0
M  V30 348 N  23.1732 31.4422 88.6279 0
M  V30 349 C  22.3937 31.2993 89.8585 0 CFG=2
M  V30 350 C  22.5874 32.5584 90.7243 0
M  V30 351 O  23.6568 32.7346 91.3072 0
M  V30 352 C  22.8630 30.0578 90.6839 0
M  V30 353 C  22.1262 29.8876 92.0317 0
M  V30 354 C  22.7533 28.7556 89.8718 0
M  V30 355 N  21.5406 33.3949 90.8017 0
M  V30 356 C  21.4524 34.5584 91.6860 0 CFG=2
M  V30 357 C  20.8260 34.1355 93.0175 0
M  V30 358 O  19.7249 33.5937 93.0056 0
M  V30 359 C  20.6432 35.6625 90.9704 0
M  V30 360 C  20.3058 36.9227 91.7920 0
M  V30 361 C  19.6690 38.0123 90.9129 0
M  V30 362 C  19.4183 39.3349 91.6535 0
M  V30 363 N  18.8813 40.3707 90.7513 0 CHG=1
M  V30 364 N  21.5321 34.4026 94.1248 0
M  V30 365 C  21.1287 34.0582 95.4867 0 CFG=2
M  V30 366 C  20.7325 35.3115 96.2822 0
M  V30 367 O  21.3322 36.3725 96.1011 0
M  V30 368 C  22.2771 33.2712 96.1598 0
M  V30 369 O  23.4133 34.0673 96.4439 0
M  V30 370 N  19.7401 35.1378 97.1693 0
M  V30 371 C  19.2919 36.1370 98.1330 0 CFG=2
M  V30 372 C  20.0227 35.9230 99.4628 0
M  V30 373 O  19.9537 34.8311 100.0300 0
M  V30 374 C  17.7583 36.0252 98.3142 0
M  V30 375 C  17.1127 36.9733 99.3556 0
M  V30 376 C  17.4673 38.4512 99.1233 0
M  V30 377 C  15.5836 36.7903 99.4089 0
M  V30 378 N  20.6468 37.0011 99.9567 0
M  V30 379 C  21.1225 37.1241 101.3301 0 CFG=2
M  V30 380 C  19.9180 37.3702 102.2544 0
M  V30 381 O  19.1765 38.3267 102.0283 0
M  V30 382 C  22.1508 38.2724 101.3657 0
M  V30 383 C  22.7549 38.5865 102.7432 0
M  V30 384 C  23.8280 39.6799 102.6403 0
M  V30 385 C  24.4976 39.9905 103.9863 0
M  V30 386 N  25.5302 41.0327 103.8468 0 CHG=1
M  V30 387 N  19.7294 36.5028 103.2618 0
M  V30 388 C  18.6140 36.5829 104.2079 0 CFG=2
M  V30 389 C  18.6428 37.8849 105.0304 0
M  V30 390 O  19.6589 38.1878 105.6568 0
M  V30 391 C  18.5964 35.3485 105.1365 0
M  V30 392 C  18.2461 34.0123 104.4428 0
M  V30 393 C  19.4680 33.1506 104.1103 0
M  V30 394 O  20.4657 33.6404 103.5862 0
M  V30 395 N  19.3870 31.8496 104.3962 0
M  V30 396 N  17.5207 38.6212 104.9983 0
M  V30 397 C  17.3219 39.8657 105.7412 0
M  V30 398 C  17.8192 41.1176 104.9952 0
M  V30 399 O  17.5987 42.2182 105.4988 0
M  V30 400 N  18.4628 40.9830 103.8188 0
M  V30 401 C  18.9193 42.1127 102.9950 0 CFG=2
M  V30 402 C  17.7746 42.8468 102.2663 0
M  V30 403 O  17.8751 44.0538 102.0497 0
M  V30 404 C  20.0019 41.6277 102.0112 0
M  V30 405 O  19.4628 40.8601 100.9520 0
M  V30 406 N  16.7187 42.0978 101.9149 0
M  V30 407 C  15.5063 42.5626 101.2482 0 CFG=2
M  V30 408 C  14.4129 41.4931 101.4023 0
M  V30 409 O  14.6916 40.3742 101.8399 0
M  V30 410 C  15.7812 42.9121 99.7614 0
M  V30 411 C  16.2528 41.7362 98.8841 0
M  V30 412 S  16.4552 42.1024 97.1202 0
M  V30 413 C  14.7265 42.3587 96.6413 0
M  V30 414 N  13.1831 41.8694 101.0185 0
M  V30 415 C  11.9975 41.0129 101.0151 0 CFG=2
M  V30 416 C  12.1550 39.8149 100.0411 0
M  V30 417 O  12.4287 40.0543 98.8631 0
M  V30 418 C  10.7955 41.8969 100.6191 0
M  V30 419 O  9.5940 41.1532 100.5493 0
M  V30 420 N  11.9480 38.5657 100.5302 0
M  V30 421 C  11.7682 37.3600 99.6884 0 CFG=2
M  V30 422 C  10.7900 37.4840 98.5058 0
M  V30 423 O  11.0880 36.9688 97.4286 0
M  V30 424 C  11.2701 36.3070 100.6918 0
M  V30 425 C  11.9438 36.6925 101.9917 0
M  V30 426 C  11.8631 38.2118 101.9508 0
M  V30 427 N  9.6603 38.1775 98.7337 0
M  V30 428 C  8.6156 38.4485 97.7461 0 CFG=2
M  V30 429 C  9.1259 39.3503 96.6039 0
M  V30 430 O  8.9060 39.0206 95.4404 0
M  V30 431 C  7.3600 39.0515 98.4274 0
M  V30 432 C  6.1466 39.3153 97.5169 0
M  V30 433 O  5.8541 38.4573 96.6541 0
M  V30 434 O  5.4553 40.3233 97.7817 0 CHG=-1
M  V30 435 N  9.8187 40.4479 96.9607 0
M  V30 436 C  10.3979 41.4088 96.0169 0 CFG=2
M  V30 437 C  11.5497 40.8326 95.1762 0
M  V30 438 O  11.7237 41.2578 94.0347 0
M  V30 439 C  10.8715 42.6519 96.7832 0
M  V30 440 N  12.2948 39.8691 95.7450 0
M  V30 441 C  13.3638 39.1360 95.0707 0 CFG=2
M  V30 442 C  12.8085 38.2033 93.9775 0
M  V30 443 O  13.2858 38.2524 92.8452 0
M  V30 444 C  14.2153 38.4055 96.1340 0
M  V30 445 C  15.4035 37.6097 95.6214 0
M  V30 446 C  16.6091 38.2673 95.2945 0
M  V30 447 C  15.2816 36.2298 95.3523 0
M  V30 448 C  17.6806 37.5432 94.7882 0
M  V30 449 C  16.3654 35.5265 94.8433 0
M  V30 450 C  17.5582 36.1779 94.5670 0
M  V30 451 N  11.7799 37.4120 94.3297 0
M  V30 452 C  11.1113 36.4585 93.4394 0 CFG=2
M  V30 453 C  10.1412 37.1007 92.4319 0
M  V30 454 O  9.7916 36.4276 91.4647 0
M  V30 455 C  10.3838 35.3935 94.2898 0
M  V30 456 C  11.3444 34.4336 95.0221 0
M  V30 457 C  10.6086 33.6331 96.1161 0
M  V30 458 C  12.1090 33.5222 94.0317 0
M  V30 459 N  9.7387 38.3689 92.6362 0
M  V30 460 C  8.8724 39.1284 91.7251 0 CFG=2
M  V30 461 C  9.4768 39.3314 90.3228 0
M  V30 462 O  8.7315 39.3309 89.3428 0
M  V30 463 C  8.5199 40.4806 92.3626 0
M  V30 464 N  10.8156 39.4389 90.2601 0
M  V30 465 C  11.6124 39.4511 89.0351 0 CFG=2
M  V30 466 C  11.5020 38.1343 88.2476 0
M  V30 467 O  11.2390 38.1741 87.0472 0
M  V30 468 C  13.0713 39.7825 89.4052 0
M  V30 469 C  14.0625 39.7548 88.2203 0
M  V30 470 C  15.4848 40.1824 88.5966 0
M  V30 471 O  15.9445 39.8222 89.7038 0
M  V30 472 O  16.1109 40.8510 87.7483 0 CHG=-1
M  V30 473 N  11.6785 37.0005 88.9499 0
M  V30 474 C  11.5545 35.6521 88.3977 0 CFG=2
M  V30 475 C  10.1411 35.3402 87.8881 0
M  V30 476 O  10.0208 34.7963 86.7952 0
M  V30 477 C  12.0047 34.6213 89.4415 0
M  V30 478 N  9.1069 35.7389 88.6498 0
M  V30 479 C  7.6898 35.5871 88.2942 0 CFG=2
M  V30 480 C  7.2874 36.3613 87.0248 0
M  V30 481 O  6.3885 35.9014 86.3227 0
M  V30 482 C  6.8013 36.0060 89.4897 0
M  V30 483 C  6.9033 35.0848 90.7124 0
M  V30 484 O  7.1710 33.8905 90.5898 0
M  V30 485 N  6.6623 35.6365 91.9036 0
M  V30 486 N  7.9704 37.4810 86.7259 0
M  V30 487 C  7.8089 38.2228 85.4748 0 CFG=2
M  V30 488 C  8.4618 37.5069 84.2780 0
M  V30 489 O  7.8955 37.5402 83.1871 0
M  V30 490 C  8.3146 39.6696 85.6656 0
M  V30 491 C  8.1711 40.5753 84.4199 0
M  V30 492 C  7.9909 42.0362 84.8394 0
M  V30 493 C  9.3475 40.4339 83.4316 0
M  V30 494 N  9.6212 36.8632 84.4954 0
M  V30 495 C  10.3499 36.0967 83.4775 0 CFG=2
M  V30 496 C  9.6601 34.7713 83.0826 0
M  V30 497 O  10.0196 34.2056 82.0508 0
M  V30 498 C  11.8000 35.8626 83.9429 0
M  V30 499 C  12.6211 37.1495 84.1290 0
M  V30 500 S  14.1767 36.9234 85.0370 0
M  V30 501 C  15.1830 36.1299 83.7567 0
M  V30 502 N  8.6570 34.3282 83.8648 0
M  V30 503 C  7.7187 33.2590 83.5010 0 CFG=2
M  V30 504 C  6.6960 33.7105 82.4361 0
M  V30 505 O  6.1230 32.8501 81.7704 0
M  V30 506 C  6.9716 32.7566 84.7588 0
M  V30 507 C  7.8949 32.1730 85.8390 0
M  V30 508 C  7.1578 31.6992 87.0991 0
M  V30 509 C  8.1404 31.2774 88.2051 0
M  V30 510 N  7.4437 30.8263 89.4210 0 CHG=1
M  V30 511 N  6.4814 35.0325 82.3000 0
M  V30 512 C  5.5446 35.6415 81.3536 0 CFG=2
M  V30 513 C  6.2637 36.1645 80.0962 0
M  V30 514 O  5.7128 36.0262 79.0042 0
M  V30 515 C  4.7818 36.7972 82.0437 0
M  V30 516 C  4.0333 36.4386 83.3478 0
M  V30 517 C  3.0712 35.2550 83.2209 0
M  V30 518 O  3.2003 34.2667 83.9389 0
M  V30 519 N  2.1005 35.3507 82.3097 0
M  V30 520 N  7.4679 36.7430 80.2615 0
M  V30 521 C  8.3128 37.2273 79.1684 0 CFG=2
M  V30 522 C  9.3575 36.1533 78.8266 0
M  V30 523 O  10.4067 36.0925 79.4687 0
M  V30 524 C  8.9864 38.5649 79.5673 0
M  V30 525 C  8.0662 39.8080 79.5682 0
M  V30 526 C  8.8517 41.0604 80.0184 0
M  V30 527 C  7.3796 40.0419 78.2059 0
M  V30 528 N  9.0359 35.3301 77.8157 0
M  V30 529 C  9.8922 34.2689 77.2885 0 CFG=2
M  V30 530 C  10.0667 34.4663 75.7759 0
M  V30 531 O  9.0800 34.4112 75.0418 0
M  V30 532 C  9.2681 32.8916 77.6005 0
M  V30 533 C  9.2958 32.5254 79.0974 0
M  V30 534 C  8.7350 31.1261 79.3536 0
M  V30 535 O  7.6397 30.9770 79.8862 0
M  V30 536 N  9.4807 30.0883 78.9692 0
M  V30 537 N  11.3204 34.6802 75.3429 0
M  V30 538 C  11.7045 34.9078 73.9462 0 CFG=2
M  V30 539 C  13.2006 34.6019 73.7609 0
M  V30 540 O  13.9420 34.5643 74.7428 0
M  V30 541 C  11.3416 36.3572 73.5579 0
M  V30 542 C  11.4736 36.7213 72.1000 0
M  V30 543 N  12.5753 37.4172 71.5925 0
M  V30 544 C  10.5915 36.4748 71.0681 0
M  V30 545 C  12.3174 37.5704 70.3001 0
M  V30 546 N  11.1554 37.0309 69.9338 0
M  V30 547 N  13.6143 34.3787 72.5015 0
M  V30 548 C  14.9995 34.0888 72.1127 0 CFG=2
M  V30 549 C  15.9817 35.2633 72.2741 0
M  V30 550 O  17.1753 35.0087 72.4162 0
M  V30 551 C  15.0302 33.5634 70.6583 0
M  V30 552 C  14.4550 32.1451 70.4566 0
M  V30 553 C  15.1848 31.0647 71.2604 0
M  V30 554 O  14.5991 30.4457 72.1451 0
M  V30 555 N  16.4668 30.8394 70.9641 0
M  V30 556 N  15.4773 36.5071 72.2571 0
M  V30 557 C  16.2543 37.7345 72.4588 0 CFG=2
M  V30 558 C  16.1229 38.2724 73.8976 0
M  V30 559 O  16.4836 39.4217 74.1401 0
M  V30 560 C  15.8293 38.7927 71.4155 0
M  V30 561 C  15.9085 38.3486 69.9386 0
M  V30 562 C  17.2298 38.6356 69.1995 0
M  V30 563 N  18.4143 38.0656 69.8626 0
M  V30 564 C  18.8505 36.7930 69.8309 0
M  V30 565 N  18.2378 35.8313 69.1233 0
M  V30 566 N  19.9410 36.4821 70.5381 0 CHG=1
M  V30 567 N  15.6139 37.4438 74.8225 0
M  V30 568 C  15.4987 37.7195 76.2520 0 CFG=2
M  V30 569 C  16.2161 36.5839 76.9980 0
M  V30 570 O  16.0936 35.4229 76.6034 0
M  V30 571 C  14.0037 37.7711 76.6579 0
M  V30 572 C  13.3037 39.1413 76.4878 0
M  V30 573 C  13.1905 39.6211 75.0258 0
M  V30 574 C  11.9360 39.1364 77.2025 0
M  V30 575 N  16.9345 36.9342 78.0776 0
M  V30 576 C  17.6011 35.9788 78.9653 0 CFG=2
M  V30 577 C  16.5519 35.1801 79.7634 0
M  V30 578 O  15.7503 35.7691 80.4891 0
M  V30 579 C  18.5996 36.6857 79.9238 0
M  V30 580 C  19.1627 35.7911 81.0474 0
M  V30 581 C  19.7706 37.2825 79.1222 0
M  V30 582 N  16.5479 33.8589 79.5382 0
M  V30 583 C  15.4910 32.9438 79.9566 0 CFG=2
M  V30 584 C  15.6240 32.5162 81.4269 0
M  V30 585 O  16.7302 32.2046 81.8633 0
M  V30 586 C  15.5522 31.7300 79.0039 0
M  V30 587 C  14.4716 30.6456 79.1924 0
M  V30 588 C  13.0222 31.1188 78.9650 0
M  V30 589 N  12.7881 31.5294 77.5673 0
M  V30 590 C  12.5317 30.7358 76.5099 0
M  V30 591 N  12.3784 29.4078 76.6293 0
M  V30 592 N  12.4361 31.2903 75.2955 0 CHG=1
M  V30 593 N  14.4832 32.4369 82.1340 0
M  V30 594 C  14.3756 31.8188 83.4576 0 CFG=2
M  V30 595 C  14.3512 30.2894 83.3104 0
M  V30 596 O  13.4737 29.7633 82.6235 0
M  V30 597 C  13.0972 32.3332 84.1545 0
M  V30 598 C  12.8851 31.8420 85.6067 0
M  V30 599 C  13.9005 32.4852 86.5736 0
M  V30 600 C  11.4284 32.0619 86.0573 0
M  V30 601 N  15.3092 29.6178 83.9647 0
M  V30 602 C  15.4548 28.1623 83.9478 0 CFG=2
M  V30 603 C  14.7703 27.5127 85.1576 0
M  V30 604 O  14.1168 26.4858 84.9764 0
M  V30 605 C  16.9531 27.7890 83.9091 0
M  V30 606 C  17.6522 27.8089 82.5550 0
M  V30 607 C  17.1932 28.5921 81.4717 0
M  V30 608 C  18.7968 27.0045 82.3807 0
M  V30 609 C  17.8696 28.5618 80.2374 0
M  V30 610 C  19.4941 27.0004 81.1582 0
M  V30 611 C  19.0313 27.7822 80.0842 0
M  V30 612 O  19.7102 27.7873 78.9008 0
M  V30 613 N  14.9233 28.1061 86.3550 0
M  V30 614 C  14.4010 27.5514 87.6024 0 CFG=2
M  V30 615 C  14.4274 28.5692 88.7533 0
M  V30 616 O  14.9958 29.6507 88.6228 0
M  V30 617 C  15.1774 26.2677 87.9736 0
M  V30 618 N  13.8178 28.1763 89.8789 0
M  V30 619 C  13.8573 28.8672 91.1649 0 CFG=2
M  V30 620 C  13.9839 27.8293 92.2984 0
M  V30 621 O  13.6269 26.6649 92.1146 0
M  V30 622 C  12.5823 29.7315 91.4122 0
M  V30 623 C  12.5131 30.9487 90.4736 0
M  V30 624 C  11.2531 28.9477 91.3853 0
M  V30 625 N  14.4774 28.2860 93.4588 0
M  V30 626 C  14.4321 27.5476 94.7197 0 CFG=2
M  V30 627 C  13.8635 28.5340 95.7502 0
M  V30 628 O  14.5742 29.4468 96.1638 0
M  V30 629 C  15.8348 27.0562 95.1977 0
M  V30 630 C  15.7831 26.3104 96.5473 0
M  V30 631 C  16.5297 26.1669 94.1514 0
M  V30 632 N  12.5781 28.3718 96.0975 0
M  V30 633 C  11.8326 29.2884 96.9726 0 CFG=2
M  V30 634 C  12.0762 29.0661 98.4878 0
M  V30 635 O  11.5422 29.8368 99.2862 0
M  V30 636 C  10.3092 29.2248 96.6793 0 CFG=2
M  V30 637 O  9.7847 27.9307 96.9159 0
M  V30 638 C  9.9567 29.6667 95.2474 0
M  V30 639 N  12.9207 28.0884 98.8622 0
M  V30 640 C  13.4466 27.9226 100.2202 0 CFG=2
M  V30 641 C  14.7135 28.7752 100.4193 0
M  V30 642 O  15.5285 28.8586 99.5012 0
M  V30 643 C  13.7606 26.4355 100.4424 0
M  V30 644 N  14.8709 29.3641 101.6186 0
M  V30 645 C  16.0091 30.2111 102.0063 0 CFG=2
M  V30 646 C  17.3275 29.4139 102.1570 0
M  V30 647 O  17.2963 28.3730 102.8157 0
M  V30 648 C  15.6653 30.9405 103.3191 0
M  V30 649 C  14.5381 31.9855 103.1434 0
M  V30 650 C  14.2519 32.8702 104.3686 0
M  V30 651 O  14.8393 32.6294 105.4475 0
M  V30 652 O  13.4350 33.8016 104.1957 0 CHG=-1
M  V30 653 N  18.4635 29.8909 101.5816 0
M  V30 654 C  18.6289 31.1126 100.7626 0 CFG=2
M  V30 655 C  18.0092 30.9633 99.3634 0
M  V30 656 O  18.3305 30.0124 98.6525 0
M  V30 657 C  20.1549 31.2888 100.6808 0
M  V30 658 C  20.7167 29.8818 100.7969 0
M  V30 659 C  19.7470 29.2047 101.7591 0
M  V30 660 N  17.0928 31.8789 99.0182 0
M  V30 661 C  16.2650 31.7857 97.8167 0 CFG=2
M  V30 662 C  17.0909 32.0522 96.5477 0
M  V30 663 O  17.7962 33.0585 96.4960 0
M  V30 664 C  15.0655 32.7711 97.8885 0 CFG=2
M  V30 665 C  14.1202 32.3978 99.0515 0
M  V30 666 C  14.2418 32.8885 96.5902 0
M  V30 667 C  13.3298 33.5791 99.6134 0
M  V30 668 N  16.9884 31.1430 95.5645 0
M  V30 669 C  17.7090 31.2309 94.2952 0 CFG=2
M  V30 670 C  16.7565 31.5666 93.1376 0
M  V30 671 O  15.6047 31.1303 93.1319 0
M  V30 672 C  18.4303 29.9001 93.9846 0
M  V30 673 C  19.5763 29.4418 94.8811 0
M  V30 674 C  20.1666 30.2708 95.8616 0
M  V30 675 C  20.0938 28.1462 94.6825 0
M  V30 676 C  21.2548 29.8068 96.6265 0
M  V30 677 C  21.1933 27.6851 95.4312 0
M  V30 678 C  21.7754 28.5175 96.4062 0
M  V30 679 O  22.8352 28.0760 97.1428 0
M  V30 680 N  17.3103 32.2843 92.1495 0
M  V30 681 C  16.7561 32.4957 90.8160 0 CFG=2
M  V30 682 C  17.8357 32.0202 89.8302 0
M  V30 683 O  18.9172 32.6072 89.7802 0
M  V30 684 C  16.4453 33.9963 90.5266 0 CFG=2
M  V30 685 C  15.3818 34.5494 91.4979 0
M  V30 686 C  16.0011 34.2544 89.0676 0
M  V30 687 C  15.2298 36.0781 91.4410 0
M  V30 688 N  17.5215 30.9542 89.0840 0
M  V30 689 C  18.4244 30.3067 88.1392 0 CFG=2
M  V30 690 C  17.9646 30.6537 86.7155 0
M  V30 691 O  16.7822 30.5229 86.4001 0
M  V30 692 C  18.4256 28.7600 88.3116 0 CFG=2
M  V30 693 C  18.7947 28.3602 89.7609 0
M  V30 694 C  19.3949 28.0602 87.3322 0
M  V30 695 C  17.5998 28.1578 90.7026 0
M  V30 696 N  18.9161 31.1060 85.8915 0
M  V30 697 C  18.6773 31.5947 84.5386 0 CFG=2
M  V30 698 C  19.7122 31.0138 83.5555 0
M  V30 699 O  20.6709 30.3491 83.9561 0
M  V30 700 C  18.7570 33.1525 84.4864 0 CFG=2
M  V30 701 O  20.0862 33.6271 84.5240 0
M  V30 702 C  17.9315 33.8819 85.5561 0
M  V30 703 N  19.4806 31.3237 82.2724 0
M  V30 704 C  20.3669 31.0996 81.1391 0 CFG=2
M  V30 705 C  21.7123 31.8197 81.3105 0
M  V30 706 O  21.7215 33.0350 81.5066 0
M  V30 707 C  19.6234 31.6019 79.8879 0
M  V30 708 C  20.3807 31.4073 78.5608 0
M  V30 709 C  19.5182 31.6981 77.3267 0
M  V30 710 O  18.7172 32.6606 77.3632 0
M  V30 711 O  19.6780 30.9458 76.3415 0 CHG=-1
M  V30 712 N  22.8131 31.0600 81.2048 0
M  V30 713 C  24.1689 31.6003 81.2415 0 CFG=2
M  V30 714 C  24.5535 32.1987 79.8772 0
M  V30 715 O  24.3103 31.5738 78.8445 0
M  V30 716 C  25.1433 30.4925 81.6772 0
M  V30 717 C  26.5618 30.9680 81.9218 0
M  V30 718 C  26.8738 31.6941 83.0907 0
M  V30 719 C  27.5695 30.6990 80.9760 0
M  V30 720 C  28.1852 32.1589 83.3051 0
M  V30 721 C  28.8801 31.1527 81.2016 0
M  V30 722 C  29.1922 31.8848 82.3608 0
M  V30 723 O  30.4690 32.3184 82.5692 0
M  V30 724 N  25.1570 33.3943 79.9191 0
M  V30 725 C  25.5854 34.1716 78.7594 0 CFG=2
M  V30 726 C  27.1009 34.3743 78.8829 0
M  V30 727 O  27.5350 35.1489 79.7330 0
M  V30 728 C  24.8082 35.5066 78.7484 0
M  V30 729 C  23.2760 35.3468 78.6554 0
M  V30 730 S  22.6451 34.5691 77.1431 0
M  V30 731 C  22.9758 35.8982 75.9615 0
M  V30 732 N  27.8683 33.6198 78.0770 0
M  V30 733 C  29.3090 33.3783 78.2339 0 CFG=2
M  V30 734 C  30.1970 34.6301 78.3754 0
M  V30 735 O  31.0206 34.6781 79.2886 0
M  V30 736 C  29.7876 32.4571 77.0869 0
M  V30 737 C  31.2396 31.9340 77.1993 0
M  V30 738 C  31.4278 30.9350 78.3493 0
M  V30 739 O  30.8451 29.8313 78.2562 0
M  V30 740 O  32.1354 31.2850 79.3201 0 CHG=-1
M  V30 741 N  30.0036 35.6118 77.4803 0
M  V30 742 C  30.7953 36.8460 77.4027 0 CFG=2
M  V30 743 C  30.3160 37.9604 78.3554 0
M  V30 744 O  30.9413 39.0213 78.3670 0
M  V30 745 C  30.8180 37.3020 75.9241 0
M  V30 746 C  31.8419 36.5322 75.0814 0
M  V30 747 O  33.0235 36.4965 75.4161 0
M  V30 748 N  31.4122 35.9375 73.9696 0
M  V30 749 N  29.2677 37.7108 79.1609 0
M  V30 750 C  28.7566 38.6421 80.1681 0
M  V30 751 C  28.1159 39.8782 79.5275 0
M  V30 752 O  27.6361 39.8110 78.3970 0
M  V30 753 N  28.0631 40.9941 80.2771 0
M  V30 754 C  27.4141 42.2357 79.8428 0 CFG=2
M  V30 755 C  28.1016 42.8938 78.6310 0
M  V30 756 O  29.3179 42.7847 78.4888 0
M  V30 757 C  27.2384 43.1955 81.0378 0
M  V30 758 O  28.4144 43.9059 81.3643 0
M  V30 759 N  27.2974 43.5609 77.7868 0
M  V30 760 C  27.7208 44.2328 76.5571 0 CFG=2
M  V30 761 C  28.7081 45.3865 76.8094 0
M  V30 762 O  29.6728 45.5035 76.0574 0
M  V30 763 C  26.4669 44.6669 75.7574 0
M  V30 764 C  26.7134 45.4038 74.4202 0
M  V30 765 C  27.4509 44.5243 73.3959 0
M  V30 766 C  25.3991 45.9583 73.8348 0
M  V30 767 N  28.4855 46.1802 77.8733 0
M  V30 768 C  29.3688 47.2817 78.2736 0 CFG=2
M  V30 769 C  30.7833 46.8077 78.6851 0
M  V30 770 O  31.7519 47.4913 78.3582 0
M  V30 771 C  28.7367 48.1402 79.4102 0
M  V30 772 C  28.6717 47.4432 80.7813 0
M  V30 773 C  29.4013 49.5200 79.5603 0
M  V30 774 N  30.8763 45.6306 79.3329 0
M  V30 775 C  32.1375 44.9676 79.6800 0 CFG=2
M  V30 776 C  32.7622 44.2509 78.4753 0
M  V30 777 O  33.9784 44.3389 78.3121 0
M  V30 778 C  32.0096 43.9687 80.8587 0
M  V30 779 C  31.5313 44.5450 82.2031 0
M  V30 780 O  31.6887 45.7663 82.4300 0
M  V30 781 O  31.1194 43.7150 83.0441 0 CHG=-1
M  V30 782 N  31.9380 43.5646 77.6594 0
M  V30 783 C  32.3830 42.8116 76.4852 0 CFG=2
M  V30 784 C  33.0685 43.6791 75.4204 0
M  V30 785 O  34.1217 43.2791 74.9326 0
M  V30 786 C  31.2632 41.9213 75.8991 0
M  V30 787 C  31.6597 41.1985 74.6180 0
M  V30 788 C  32.6351 40.1796 74.6696 0
M  V30 789 C  31.2165 41.6578 73.3581 0
M  V30 790 C  33.1180 39.6146 73.4986 0
M  V30 791 C  31.7103 41.0743 72.1974 0
M  V30 792 C  32.6577 40.0608 72.2685 0
M  V30 793 N  32.4897 44.8560 75.1271 0
M  V30 794 C  33.0205 45.8565 74.1960 0 CFG=2
M  V30 795 C  34.4193 46.3967 74.5648 0
M  V30 796 O  35.1163 46.8739 73.6710 0
M  V30 797 C  32.0179 47.0223 74.0890 0
M  V30 798 C  30.7474 46.7222 73.2643 0
M  V30 799 C  29.6776 47.8040 73.4906 0
M  V30 800 C  31.0348 46.5288 71.7633 0
M  V30 801 N  34.8011 46.3032 75.8505 0
M  V30 802 C  36.0922 46.7400 76.3857 0 CFG=2
M  V30 803 C  37.1734 45.6405 76.3538 0
M  V30 804 O  38.3436 45.9740 76.5369 0
M  V30 805 C  35.8870 47.2521 77.8255 0
M  V30 806 C  34.9888 48.4972 77.9165 0
M  V30 807 C  34.6524 48.8602 79.3691 0
M  V30 808 C  33.7020 50.0617 79.4632 0
M  V30 809 N  33.3102 50.3452 80.8538 0 CHG=1
M  V30 810 N  36.7969 44.3694 76.1121 0
M  V30 811 C  37.7388 43.2581 75.9064 0 CFG=2
M  V30 812 C  38.4334 43.3690 74.5227 0
M  V30 813 O  37.8978 44.0582 73.6532 0
M  V30 814 C  37.0392 41.8665 76.0077 0 CFG=2
M  V30 815 O  36.3017 41.5041 74.8523 0
M  V30 816 C  36.1723 41.6954 77.2624 0
M  V30 817 N  39.5749 42.6673 74.3058 0
M  V30 818 C  40.2474 42.6323 72.9889 0 CFG=2
M  V30 819 C  39.3751 42.1763 71.8043 0
M  V30 820 O  39.5228 42.7326 70.7199 0
M  V30 821 C  41.4503 41.6988 73.2030 0
M  V30 822 C  41.7430 41.8005 74.6890 0
M  V30 823 C  40.3547 41.9274 75.3014 0
M  V30 824 N  38.4627 41.2172 72.0412 0
M  V30 825 C  37.4837 40.7428 71.0589 0 CFG=2
M  V30 826 C  36.3968 41.7839 70.7357 0
M  V30 827 O  35.9812 41.8771 69.5811 0
M  V30 828 C  36.8349 39.4428 71.5735 0
M  V30 829 O  37.7277 38.3579 71.4283 0
M  V30 830 N  35.9681 42.5443 71.7569 0
M  V30 831 C  34.9077 43.5400 71.6455 0
M  V30 832 C  35.3878 44.8435 70.9988 0
M  V30 833 O  34.6047 45.4919 70.3079 0
M  V30 834 N  36.6642 45.2127 71.2048 0
M  V30 835 C  37.3302 46.3591 70.5779 0 CFG=2
M  V30 836 C  37.5106 46.1606 69.0573 0
M  V30 837 O  37.3805 47.1246 68.3037 0
M  V30 838 C  38.7132 46.6369 71.2529 0 CFG=2
M  V30 839 C  38.5147 47.1827 72.6878 0
M  V30 840 C  39.6637 47.5714 70.4644 0
M  V30 841 C  39.7487 47.0459 73.5916 0
M  V30 842 N  37.7735 44.9080 68.6457 0
M  V30 843 C  37.9511 44.4864 67.2548 0 CFG=2
M  V30 844 C  36.6505 44.4125 66.4317 0
M  V30 845 O  36.7528 44.2164 65.2198 0
M  V30 846 C  38.6796 43.1264 67.2405 0
M  V30 847 C  40.1586 43.2194 67.6491 0
M  V30 848 C  40.7825 41.8343 67.8766 0
M  V30 849 C  42.1815 41.9173 68.5049 0
M  V30 850 N  42.7417 40.5790 68.7611 0 CHG=1
M  V30 851 N  35.4689 44.5627 67.0650 0
M  V30 852 C  34.1740 44.5478 66.3785 0 CFG=2
M  V30 853 C  34.0443 45.7134 65.3879 0
M  V30 854 O  34.1503 46.8746 65.7848 0
M  V30 855 C  32.9962 44.5951 67.3809 0
M  V30 856 C  32.8451 43.3722 68.3105 0
M  V30 857 C  31.6818 43.5941 69.3029 0
M  V30 858 C  32.7146 42.0362 67.5499 0
M  V30 859 N  33.7812 45.3574 64.1221 0
M  V30 860 C  33.4325 46.2785 63.0434 0 CFG=2
M  V30 861 C  32.0451 46.9049 63.2871 0
M  V30 862 O  31.2276 46.3241 64.0038 0
M  V30 863 C  33.3906 45.5227 61.6855 0 CFG=2
M  V30 864 O  32.3356 44.5770 61.6183 0
M  V30 865 C  34.7122 44.8241 61.3305 0
M  V30 866 N  31.7990 48.0672 62.6590 0
M  V30 867 C  30.5281 48.7956 62.7353 0 CFG=2
M  V30 868 C  29.3087 47.9782 62.2450 0
M  V30 869 O  28.2164 48.1786 62.7662 0
M  V30 870 C  30.6097 50.1484 61.9662 0 CFG=2
M  V30 871 C  29.4381 51.1171 62.2511 0
M  V30 872 C  30.7828 49.9835 60.4408 0
M  V30 873 C  29.2021 51.4217 63.7383 0
M  V30 874 N  29.5335 47.0205 61.3268 0
M  V30 875 C  28.5677 46.0131 60.8823 0 CFG=2
M  V30 876 C  28.0545 45.1447 62.0481 0
M  V30 877 O  26.8411 45.0113 62.1941 0
M  V30 878 C  29.2259 45.2119 59.7297 0
M  V30 879 C  28.4920 43.9342 59.3061 0
M  V30 880 O  28.7586 42.8563 59.8333 0
M  V30 881 N  27.5727 44.0475 58.3497 0
M  V30 882 N  28.9738 44.6064 62.8692 0
M  V30 883 C  28.6311 43.7832 64.0304 0 CFG=2
M  V30 884 C  28.0156 44.5947 65.1902 0
M  V30 885 O  27.2118 44.0412 65.9377 0
M  V30 886 C  29.8596 42.9511 64.4632 0
M  V30 887 C  29.6010 41.9108 65.5763 0
M  V30 888 C  28.5084 40.8809 65.2357 0
M  V30 889 C  28.2955 39.8479 66.3503 0
M  V30 890 N  27.2863 38.8415 65.9766 0 CHG=1
M  V30 891 N  28.3523 45.8924 65.2949 0
M  V30 892 C  27.7325 46.8307 66.2356 0 CFG=2
M  V30 893 C  26.2664 47.1441 65.8640 0
M  V30 894 O  25.4283 47.2033 66.7627 0
M  V30 895 C  28.5800 48.1211 66.3258 0
M  V30 896 C  30.0136 47.9357 66.8785 0
M  V30 897 C  30.8012 49.2616 66.8448 0
M  V30 898 C  30.0441 47.2949 68.2764 0
M  V30 899 N  25.9757 47.2842 64.5559 0
M  V30 900 C  24.6255 47.4533 63.9999 0 CFG=2
M  V30 901 C  23.7776 46.1673 64.0927 0
M  V30 902 O  22.5614 46.2731 64.2460 0
M  V30 903 C  24.7179 47.9295 62.5303 0
M  V30 904 C  25.2555 49.3690 62.3404 0
M  V30 905 C  25.7081 49.5918 60.8810 0
M  V30 906 C  24.2541 50.4401 62.8198 0
M  V30 907 N  24.4289 44.9903 64.0269 0
M  V30 908 C  23.8251 43.6669 64.2157 0 CFG=2
M  V30 909 C  23.3506 43.4778 65.6697 0
M  V30 910 O  22.1971 43.1110 65.8842 0
M  V30 911 C  24.8065 42.5405 63.7993 0
M  V30 912 C  24.2915 41.0886 63.8403 0
M  V30 913 O  23.0654 40.8717 63.7163 0
M  V30 914 O  25.1634 40.1925 63.8797 0 CHG=-1
M  V30 915 N  24.2392 43.7701 66.6365 0
M  V30 916 C  23.9462 43.7512 68.0719 0 CFG=2
M  V30 917 C  22.8275 44.7316 68.4669 0
M  V30 918 O  21.9684 44.3553 69.2615 0
M  V30 919 C  25.2334 44.0316 68.8723 0
M  V30 920 C  26.2126 42.8476 68.9032 0
M  V30 921 S  27.7131 43.2015 69.8583 0
M  V30 922 C  28.1704 41.5298 70.3822 0
M  V30 923 N  22.8254 45.9340 67.8638 0
M  V30 924 C  21.7819 46.9483 68.0190 0 CFG=2
M  V30 925 C  20.4021 46.4945 67.5078 0
M  V30 926 O  19.4055 46.7601 68.1791 0
M  V30 927 C  22.2257 48.2361 67.3129 0
M  V30 928 N  20.3747 45.7914 66.3601 0
M  V30 929 C  19.1728 45.1980 65.7691 0 CFG=2
M  V30 930 C  18.5671 44.0695 66.6207 0
M  V30 931 O  17.3446 44.0040 66.7271 0
M  V30 932 C  19.4883 44.6865 64.3557 0
M  V30 933 N  19.4261 43.2326 67.2308 0
M  V30 934 C  19.0432 42.1480 68.1405 0 CFG=2
M  V30 935 C  18.4559 42.6366 69.4754 0
M  V30 936 O  17.5396 42.0043 70.0001 0
M  V30 937 C  20.2553 41.2350 68.4001 0
M  V30 938 C  20.6342 40.3588 67.1931 0
M  V30 939 C  21.8634 39.4995 67.4872 0
M  V30 940 O  21.9728 38.9194 68.5647 0
M  V30 941 N  22.7824 39.3909 66.5270 0
M  V30 942 N  18.9793 43.7588 69.9923 0
M  V30 943 C  18.4766 44.4175 71.1982 0 CFG=2
M  V30 944 C  17.1175 45.0972 70.9379 0
M  V30 945 O  16.2177 44.9634 71.7648 0
M  V30 946 C  19.5065 45.4465 71.7451 0 CFG=2
M  V30 947 C  20.7819 44.7238 72.2409 0
M  V30 948 C  18.9773 46.3768 72.8583 0
M  V30 949 C  22.0565 45.5753 72.1556 0
M  V30 950 N  16.9706 45.7458 69.7685 0
M  V30 951 C  15.7088 46.3162 69.2952 0 CFG=2
M  V30 952 C  14.6270 45.2608 68.9951 0
M  V30 953 O  13.4509 45.5743 69.1513 0
M  V30 954 C  15.9746 47.1874 68.0612 0
M  V30 955 N  15.0341 44.0383 68.6059 0
M  V30 956 C  14.1605 42.8831 68.3794 0 CFG=2
M  V30 957 C  13.6024 42.2942 69.6900 0
M  V30 958 O  12.4307 41.9181 69.7250 0
M  V30 959 C  14.9275 41.8287 67.5503 0
M  V30 960 C  14.1399 40.5422 67.1975 0
M  V30 961 C  14.9716 39.4365 66.5227 0
M  V30 962 O  16.1050 39.7141 66.0690 0
M  V30 963 O  14.4599 38.2952 66.5012 0 CHG=-1
M  V30 964 N  14.4351 42.2455 70.7458 0
M  V30 965 C  14.0338 41.7789 72.0747 0
M  V30 966 C  13.1179 42.7962 72.7651 0
M  V30 967 O  12.1694 42.3972 73.4400 0
M  V30 968 N  13.3611 44.0992 72.5467 0
M  V30 969 C  12.4857 45.1786 72.9951 0 CFG=2
M  V30 970 C  11.1921 45.3092 72.1686 0
M  V30 971 O  10.2165 45.8251 72.7089 0
M  V30 972 C  13.2567 46.5062 73.0232 0
M  V30 973 C  14.3348 46.6195 74.1129 0
M  V30 974 S  13.8076 46.3847 75.8382 0
M  V30 975 C  12.4199 47.5473 75.9442 0
M  V30 976 N  11.1809 44.8263 70.9107 0
M  V30 977 C  9.9853 44.7564 70.0622 0 CFG=2
M  V30 978 C  9.0013 43.6688 70.5225 0
M  V30 979 O  7.7944 43.8699 70.3937 0
M  V30 980 C  10.3786 44.5499 68.5908 0
M  V30 981 N  9.5255 42.5680 71.0933 0
M  V30 982 C  8.7323 41.5484 71.7787 0 CFG=2
M  V30 983 C  8.1240 42.0714 73.0906 0
M  V30 984 O  6.9242 41.9077 73.2953 0
M  V30 985 C  9.5549 40.2541 71.9633 0
M  V30 986 C  8.8966 39.1797 72.8161 0
M  V30 987 C  7.8684 38.3771 72.2780 0
M  V30 988 C  9.1857 39.0847 74.1943 0
M  V30 989 C  7.2124 37.4563 73.0836 0
M  V30 990 C  8.5238 38.1523 74.9821 0
M  V30 991 C  7.5452 37.3378 74.4272 0
M  V30 992 N  8.9530 42.7218 73.9270 0
M  V30 993 C  8.5551 43.3524 75.1920 0 CFG=2
M  V30 994 C  7.4594 44.4247 75.0017 0
M  V30 995 O  6.4776 44.4080 75.7414 0
M  V30 996 C  9.8024 43.9236 75.9386 0 CFG=2
M  V30 997 C  10.6565 42.7588 76.4978 0
M  V30 998 C  9.5310 44.9710 77.0430 0
M  V30 999 C  12.1031 43.1351 76.8443 0
M  V30 1000 N  7.6086 45.2573 73.9563 0
M  V30 1001 C  6.6187 46.2130 73.4539 0 CFG=2
M  V30 1002 C  5.2627 45.5735 73.0990 0
M  V30 1003 O  4.2295 46.0728 73.5438 0
M  V30 1004 C  7.2413 46.9744 72.2584 0
M  V30 1005 C  6.2909 47.8848 71.4498 0
M  V30 1006 C  7.0470 48.6749 70.3777 0
M  V30 1007 O  7.3641 48.0663 69.3312 0
M  V30 1008 O  7.3067 49.8753 70.6183 0 CHG=-1
M  V30 1009 N  5.3050 44.4847 72.3106 0
M  V30 1010 C  4.1368 43.7545 71.8131 0 CFG=2
M  V30 1011 C  3.3305 43.0314 72.9121 0
M  V30 1012 O  2.1022 43.0149 72.8345 0
M  V30 1013 C  4.5793 42.8508 70.6362 0
M  V30 1014 C  3.4855 41.9469 70.0103 0
M  V30 1015 C  3.3467 40.5407 70.6193 0
M  V30 1016 O  4.3894 39.9016 70.8859 0
M  V30 1017 O  2.1853 40.1121 70.8024 0 CHG=-1
M  V30 1018 N  4.0215 42.4969 73.9358 0
M  V30 1019 C  3.4122 41.8913 75.1277 0 CFG=2
M  V30 1020 C  2.8554 42.9177 76.1410 0
M  V30 1021 O  2.3186 42.4948 77.1650 0
M  V30 1022 C  4.4264 40.9358 75.8083 0
M  V30 1023 C  4.8980 39.7214 74.9777 0
M  V30 1024 C  3.8120 38.9771 74.1838 0
M  V30 1025 N  2.7448 38.4354 75.0456 0
M  V30 1026 C  1.4389 38.3021 74.7413 0
M  V30 1027 N  0.9325 38.6590 73.5499 0
M  V30 1028 N  0.6133 37.7947 75.6652 0 CHG=1
M  V30 1029 N  2.9781 44.2266 75.8486 0
M  V30 1030 C  2.5489 45.3676 76.6725 0 CFG=2
M  V30 1031 C  3.3653 45.5006 77.9729 0
M  V30 1032 O  2.8372 45.9809 78.9722 0
M  V30 1033 C  1.0156 45.3719 76.9414 0
M  V30 1034 C  0.1423 45.3723 75.6825 0
M  V30 1035 O  0.5317 45.8891 74.6378 0
M  V30 1036 N  -1.0638 44.8118 75.7884 0
M  V30 1037 N  4.6440 45.0985 77.9336 0
M  V30 1038 C  5.6092 45.2986 79.0102 0 CFG=2
M  V30 1039 C  6.5207 46.4904 78.6985 0
M  V30 1040 O  6.6881 46.8782 77.5417 0
M  V30 1041 C  6.4489 44.0177 79.2059 0
M  V30 1042 C  5.7564 42.9273 79.9975 0
M  V30 1043 C  4.8807 42.0337 79.3532 0
M  V30 1044 C  5.9938 42.7964 81.3809 0
M  V30 1045 C  4.2432 41.0121 80.0815 0
M  V30 1046 C  5.3581 41.7760 82.1115 0
M  V30 1047 C  4.4773 40.8876 81.4642 0
M  V30 1048 O  3.8375 39.9190 82.1794 0
M  V30 1049 N  7.1226 47.0099 79.7728 0
M  V30 1050 C  8.2289 47.9595 79.7537 0 CFG=2
M  V30 1051 C  9.3794 47.3773 80.5985 0
M  V30 1052 O  9.1536 46.4356 81.3602 0
M  V30 1053 C  7.7938 49.3398 80.3256 0 CFG=2
M  V30 1054 C  7.4336 49.3448 81.8324 0
M  V30 1055 C  6.6587 49.9349 79.4685 0
M  V30 1056 C  7.2255 50.7507 82.3973 0
M  V30 1057 N  10.5870 47.9383 80.4364 0
M  V30 1058 C  11.8182 47.4639 81.0697 0 CFG=2
M  V30 1059 C  12.3340 48.4308 82.1526 0
M  V30 1060 O  12.7306 47.9630 83.2187 0
M  V30 1061 C  12.8629 47.2159 79.9649 0
M  V30 1062 C  14.0596 46.4249 80.4204 0
M  V30 1063 N  15.2245 47.0347 80.8914 0
M  V30 1064 C  14.2163 45.0560 80.4749 0
M  V30 1065 C  16.0269 46.0309 81.2158 0
M  V30 1066 N  15.4807 44.8374 80.9888 0
M  V30 1067 N  12.3178 49.7457 81.8634 0
M  V30 1068 C  12.7370 50.8704 82.7196 0 CFG=2
M  V30 1069 C  14.2363 50.9650 83.0739 0
M  V30 1070 O  14.6107 51.9435 83.7219 0
M  V30 1071 C  11.8875 50.9721 84.0088 0
M  V30 1072 C  10.3780 51.0790 83.7587 0
M  V30 1073 C  9.5970 51.6468 84.9589 0
M  V30 1074 N  9.5371 50.7287 86.1072 0
M  V30 1075 C  9.6562 51.0089 87.4186 0
M  V30 1076 N  9.9276 52.2393 87.8716 0
M  V30 1077 N  9.4978 50.0209 88.3068 0 CHG=1
M  V30 1078 N  15.0703 49.9975 82.6607 0
M  V30 1079 C  16.4951 49.9599 83.0036 0 CFG=2
M  V30 1080 C  17.3069 49.4451 81.8005 0
M  V30 1081 O  18.2396 48.6600 81.9705 0
M  V30 1082 C  16.7287 49.1580 84.3171 0
M  V30 1083 C  18.0157 49.4523 85.1141 0
M  V30 1084 O  18.7688 50.3882 84.7589 0
M  V30 1085 O  18.2139 48.7358 86.1191 0 CHG=-1
M  V30 1086 N  16.9163 49.8827 80.5914 0
M  V30 1087 C  17.5340 49.4834 79.3317 0 CFG=2
M  V30 1088 C  18.8571 50.2415 79.1228 0
M  V30 1089 O  18.8549 51.4638 78.9847 0
M  V30 1090 C  16.5128 49.6929 78.1928 0
M  V30 1091 C  16.9957 49.2488 76.7968 0
M  V30 1092 C  17.3086 47.7401 76.7260 0
M  V30 1093 C  15.9796 49.6594 75.7297 0
M  V30 1094 N  19.9602 49.4832 79.1221 0
M  V30 1095 C  21.3387 49.9671 79.0434 0 CFG=2
M  V30 1096 C  22.2510 48.7695 78.7416 0
M  V30 1097 O  21.8521 47.6334 78.9969 0
M  V30 1098 C  21.7206 50.6723 80.3662 0
M  V30 1099 C  21.6975 49.7702 81.6189 0
M  V30 1100 C  21.7910 50.5439 82.9430 0
M  V30 1101 N  23.0980 51.2018 83.1222 0
M  V30 1102 C  23.5193 51.8721 84.2102 0
M  V30 1103 N  22.7485 52.0194 85.2990 0
M  V30 1104 N  24.7470 52.4048 84.2043 0 CHG=1
M  V30 1105 N  23.4627 49.0368 78.2235 0
M  V30 1106 C  24.4470 48.0156 77.8377 0 CFG=2
M  V30 1107 C  24.9677 47.1375 78.9966 0
M  V30 1108 O  25.4219 46.0244 78.7379 0
M  V30 1109 C  25.6048 48.6835 77.0809 0
M  V30 1110 N  24.8507 47.6125 80.2498 0
M  V30 1111 C  25.1026 46.8209 81.4597 0 CFG=2
M  V30 1112 C  24.0553 45.7165 81.7076 0
M  V30 1113 O  24.3750 44.7349 82.3763 0
M  V30 1114 C  25.1841 47.7641 82.6697 0
M  V30 1115 N  22.8440 45.8946 81.1541 0
M  V30 1116 C  21.6964 44.9881 81.2645 0 CFG=2
M  V30 1117 C  21.3493 44.3425 79.9087 0
M  V30 1118 O  20.2498 43.8119 79.7599 0
M  V30 1119 C  20.5046 45.7636 81.8771 0
M  V30 1120 C  20.7284 46.1820 83.3355 0
M  V30 1121 O  21.5457 45.6044 84.0485 0
M  V30 1122 N  19.9739 47.1755 83.7969 0
M  V30 1123 N  22.3077 44.3395 78.9683 0
M  V30 1124 C  22.3057 43.4800 77.7873 0 CFG=2
M  V30 1125 C  23.4443 42.4765 77.9919 0
M  V30 1126 O  24.5631 42.9084 78.2576 0
M  V30 1127 C  22.6076 44.2679 76.4785 0 CFG=2
M  V30 1128 C  21.5960 45.4053 76.2390 0
M  V30 1129 C  22.7196 43.3635 75.2293 0
M  V30 1130 C  20.1243 44.9808 76.2535 0
M  V30 1131 N  23.1455 41.1765 77.8594 0
M  V30 1132 C  24.1204 40.0984 78.0166 0 CFG=2
M  V30 1133 C  24.4231 39.4611 76.6533 0
M  V30 1134 O  23.5177 39.2988 75.8364 0
M  V30 1135 C  23.5855 39.0561 79.0183 0
M  V30 1136 C  23.3262 39.5847 80.4494 0
M  V30 1137 C  22.8230 38.4545 81.3672 0
M  V30 1138 C  24.5446 40.2939 81.0696 0
M  V30 1139 N  25.7040 39.1229 76.4488 0
M  V30 1140 C  26.2752 38.6404 75.1945 0 CFG=2
M  V30 1141 C  26.6875 37.1642 75.3601 0
M  V30 1142 O  27.3281 36.8144 76.3525 0
M  V30 1143 C  27.5417 39.4699 74.8196 0
M  V30 1144 C  28.1991 39.0381 73.4945 0
M  V30 1145 C  27.2353 40.9768 74.7522 0
M  V30 1146 N  26.3051 36.3297 74.3802 0
M  V30 1147 C  26.5951 34.8933 74.3316 0 CFG=2
M  V30 1148 C  27.9904 34.5967 73.7479 0
M  V30 1149 O  28.6683 35.5057 73.2693 0
M  V30 1150 C  25.4707 34.2047 73.5245 0
M  V30 1151 O  25.6118 34.4000 72.1308 0
M  V30 1152 N  28.3608 33.3051 73.7477 0
M  V30 1153 C  29.5568 32.7456 73.0992 0 CFG=2
M  V30 1154 C  29.6110 33.0029 71.5763 0
M  V30 1155 O  30.7000 33.2199 71.0473 0
M  V30 1156 C  29.7635 31.2285 73.3752 0
M  V30 1157 C  28.6286 30.2483 72.9992 0
M  V30 1158 O  27.4373 30.6309 73.0473 0
M  V30 1159 O  28.9734 29.0662 72.7828 0 CHG=-1
M  V30 1160 N  28.4389 32.9998 70.9178 0
M  V30 1161 C  28.2586 33.2738 69.4877 0 CFG=2
M  V30 1162 C  28.0941 34.7832 69.1734 0
M  V30 1163 O  27.8420 35.1285 68.0179 0
M  V30 1164 C  27.0306 32.4997 68.9247 0 CFG=2
M  V30 1165 O  25.7928 33.0336 69.3616 0
M  V30 1166 C  27.0625 30.9923 69.2241 0
M  V30 1167 N  28.2621 35.6505 70.1909 0
M  V30 1168 C  28.1912 37.1161 70.1344 0 CFG=2
M  V30 1169 C  26.7659 37.6396 69.8373 0
M  V30 1170 O  26.6184 38.6980 69.2243 0
M  V30 1171 C  29.2941 37.7168 69.2107 0
M  V30 1172 C  30.7143 37.7769 69.8187 0
M  V30 1173 C  31.2926 36.3945 70.1735 0
M  V30 1174 C  31.6654 38.5606 68.8878 0
M  V30 1175 N  25.7384 36.9038 70.2988 0
M  V30 1176 C  24.3324 37.2937 70.1927 0 CFG=2
M  V30 1177 C  23.8731 37.9817 71.4928 0
M  V30 1178 O  24.1260 37.4616 72.5803 0
M  V30 1179 C  23.4789 36.0645 69.7956 0
M  V30 1180 O  23.1579 35.2036 70.8737 0
M  V30 1181 N  23.2025 39.1348 71.3459 0
M  V30 1182 C  22.7265 39.9748 72.4477 0 CFG=2
M  V30 1183 C  21.3106 39.5673 72.8842 0
M  V30 1184 O  20.4751 39.2685 72.0292 0
M  V30 1185 C  22.7210 41.4604 72.0439 0
M  V30 1186 S  24.4166 42.0977 72.0213 0
M  V30 1187 N  21.0654 39.6069 74.2057 0
M  V30 1188 C  19.7584 39.3718 74.8229 0 CFG=2
M  V30 1189 C  19.5158 40.3761 75.9591 0
M  V30 1190 O  20.4581 40.7379 76.6636 0
M  V30 1191 C  19.6580 37.9328 75.3746 0
M  V30 1192 C  19.8571 36.8331 74.3222 0
M  V30 1193 C  19.4382 35.4429 74.8183 0
M  V30 1194 C  19.9005 34.3296 73.8628 0
M  V30 1195 N  19.1423 33.0842 74.0587 0 CHG=1
M  V30 1196 N  18.2423 40.7651 76.1409 0
M  V30 1197 C  17.7767 41.6562 77.2091 0 CFG=2
M  V30 1198 C  17.7783 40.9163 78.5654 0
M  V30 1199 O  17.3304 39.7714 78.6277 0
M  V30 1200 C  16.3190 42.1531 76.9454 0 CFG=2
M  V30 1201 C  16.0970 42.7069 75.5180 0
M  V30 1202 C  15.8306 43.1786 77.9919 0
M  V30 1203 C  17.0841 43.7930 75.0816 0
M  V30 1204 N  18.2646 41.5899 79.6187 0
M  V30 1205 C  18.3895 41.0479 80.9726 0 CFG=2
M  V30 1206 C  18.0015 42.0909 82.0303 0
M  V30 1207 O  17.8537 43.2672 81.7044 0
M  V30 1208 C  19.8392 40.5910 81.1745 0
M  V30 1209 N  17.8592 41.6228 83.2837 0
M  V30 1210 C  17.5200 42.3925 84.4886 0 CFG=2
M  V30 1211 C  16.1015 42.9802 84.3747 0
M  V30 1212 O  15.9294 44.1367 83.9897 0
M  V30 1213 C  18.6078 43.4382 84.8726 0
M  V30 1214 C  18.5102 44.0961 86.2680 0
M  V30 1215 O  17.5519 43.8208 87.0253 0
M  V30 1216 O  19.4320 44.8847 86.5681 0 CHG=-1
M  V30 1217 N  15.1177 42.1399 84.7202 0
M  V30 1218 C  13.6914 42.4546 84.6833 0 CFG=2
M  V30 1219 C  13.1623 42.9030 86.0630 0
M  V30 1220 O  11.9604 42.7991 86.3105 0
M  V30 1221 C  12.9356 41.2305 84.1236 0
M  V30 1222 C  13.3344 40.8416 82.7082 0
M  V30 1223 C  12.8016 41.5353 81.6002 0
M  V30 1224 C  14.3728 39.9089 82.4947 0
M  V30 1225 C  13.2579 41.2514 80.3192 0
M  V30 1226 C  14.8090 39.6328 81.2068 0
M  V30 1227 C  14.2532 40.3013 80.1250 0
M  V30 1228 N  14.0600 43.3956 86.9379 0
M  V30 1229 C  13.7539 43.8185 88.3046 0
M  V30 1230 C  12.9193 45.1088 88.3499 0
M  V30 1231 O  12.1155 45.2636 89.2695 0
M  V30 1232 N  13.0736 46.0008 87.3533 0
M  V30 1233 C  12.2474 47.1995 87.1766 0 CFG=2
M  V30 1234 C  11.1961 47.0282 86.0656 0
M  V30 1235 O  10.3859 47.9348 85.8944 0
M  V30 1236 C  13.1340 48.4358 86.8915 0
M  V30 1237 C  14.0975 48.8462 88.0268 0
M  V30 1238 C  14.9106 50.0950 87.6196 0
M  V30 1239 C  13.3720 49.0559 89.3730 0
M  V30 1240 N  11.1808 45.8952 85.3412 0
M  V30 1241 C  10.1897 45.6286 84.2966 0 CFG=2
M  V30 1242 C  8.7716 45.4777 84.8756 0
M  V30 1243 O  8.6120 44.8497 85.9204 0
M  V30 1244 C  10.6055 44.3800 83.5062 0
M  V30 1245 N  7.7745 46.0668 84.2002 0
M  V30 1246 C  6.3738 46.0607 84.6300 0 CFG=2
M  V30 1247 C  5.4602 45.7997 83.4276 0
M  V30 1248 O  5.7611 46.2536 82.3241 0
M  V30 1249 C  6.0099 47.4204 85.2783 0
M  V30 1250 C  6.7493 47.7801 86.5844 0
M  V30 1251 C  6.4196 46.8605 87.7766 0
M  V30 1252 N  7.1888 47.2016 88.9878 0
M  V30 1253 C  8.3675 46.6993 89.4053 0
M  V30 1254 N  9.0310 45.7538 88.7282 0
M  V30 1255 N  8.9064 47.1587 90.5398 0 CHG=1
M  V30 1256 N  4.3340 45.1120 83.6832 0
M  V30 1257 C  3.2271 44.9676 82.7386 0 CFG=2
M  V30 1258 C  2.3630 46.2355 82.7784 0
M  V30 1259 O  1.8648 46.5965 83.8450 0
M  V30 1260 C  2.4094 43.7012 83.0910 0
M  V30 1261 C  1.1661 43.4148 82.2094 0
M  V30 1262 C  1.4848 43.3431 80.6986 0
M  V30 1263 C  0.4253 42.1559 82.7091 0
M  V30 1264 N  2.2008 46.8694 81.6101 0
M  V30 1265 C  1.3516 48.0374 81.4036 0 CFG=2
M  V30 1266 C  -0.0626 47.5801 81.0152 0
M  V30 1267 O  -0.2392 46.8530 80.0369 0
M  V30 1268 C  1.9933 49.0263 80.3702 0 CFG=2
M  V30 1269 C  2.7799 50.1373 81.0991 0
M  V30 1270 C  1.0470 49.6958 79.3561 0
M  V30 1271 C  3.7850 49.6199 82.1317 0
M  V30 1272 N  -1.0281 48.0129 81.8368 0
M  V30 1273 C  -2.4470 47.6786 81.7386 0 CFG=2
M  V30 1274 C  -3.2370 48.7587 80.9729 0
M  V30 1275 O  -4.2940 48.4424 80.4286 0
M  V30 1276 C  -2.9912 47.4783 83.1699 0
M  V30 1277 C  -2.2856 46.3334 83.9365 0
M  V30 1278 C  -2.6683 46.2912 85.4197 0
M  V30 1279 O  -2.0712 47.0790 86.1871 0
M  V30 1280 O  -3.5357 45.4599 85.7684 0 CHG=-1
M  V30 1281 N  -2.6945 49.9892 80.9197 0
M  V30 1282 C  -3.2159 51.1394 80.1768 0 CFG=2
M  V30 1283 C  -2.1172 51.6130 79.2084 0
M  V30 1284 O  -1.8009 50.8767 78.2738 0
M  V30 1285 C  -3.7617 52.2699 81.0945 0
M  V30 1286 C  -4.9260 51.8356 81.9956 0
M  V30 1287 O  -6.0631 51.8050 81.4753 0
M  V30 1288 O  -4.6499 51.4173 83.1424 0 CHG=-1
M  V30 1289 N  -1.5608 52.8153 79.4375 0
M  V30 1290 C  -0.4746 53.4112 78.6557 0 CFG=2
M  V30 1291 C  0.8532 53.3687 79.4313 0
M  V30 1292 O  1.8847 53.0778 78.8241 0
M  V30 1293 C  -0.8686 54.8693 78.3058 0
M  V30 1294 C  0.1888 55.6393 77.4991 0
M  V30 1295 O  0.6429 55.1745 76.4561 0
M  V30 1296 N  0.5850 56.8199 77.9812 0
M  V30 1297 N  0.8107 53.7083 80.7309 0
M  V30 1298 C  2.0048 54.0236 81.5079 0 CFG=2
M  V30 1299 C  1.8966 53.5198 82.9501 0
M  V30 1300 O  0.8031 53.4162 83.5067 0
M  V30 1301 C  2.2598 55.5493 81.4303 0
M  V30 1302 C  1.2504 56.4547 82.1799 0
M  V30 1303 C  1.4250 57.9663 81.9423 0
M  V30 1304 O  2.1107 58.3585 80.9707 0
M  V30 1305 O  0.8450 58.7240 82.7503 0 CHG=-1
M  V30 1306 N  3.0817 53.2702 83.5188 0
M  V30 1307 C  3.3337 52.9931 84.9254 0 CFG=2
M  V30 1308 C  3.8695 54.2988 85.5402 0
M  V30 1309 O  4.8236 54.8615 85.0049 0
M  V30 1310 C  4.3390 51.8143 85.0545 0
M  V30 1311 C  4.8780 51.5970 86.4633 0
M  V30 1312 C  6.0404 52.2595 86.8608 0
M  V30 1313 C  4.2048 50.7631 87.3583 0
M  V30 1314 C  6.5048 52.1125 88.1590 0
M  V30 1315 C  4.6923 50.5988 88.6536 0
M  V30 1316 C  5.8511 51.2717 89.0521 0
M  V30 1317 O  6.3919 51.1743 90.3078 0
M  V30 1318 P  6.2762 49.9340 91.5562 0
M  V30 1319 O  5.6024 50.6146 92.7601 0
M  V30 1320 O  7.7348 49.5282 91.8349 0 CHG=-1
M  V30 1321 O  5.4578 48.7641 90.9797 0 CHG=-1
M  V30 1322 N  3.2910 54.7164 86.6756 0
M  V30 1323 C  3.7818 55.8482 87.4604 0 CFG=2
M  V30 1324 C  4.5355 55.3110 88.6882 0
M  V30 1325 O  3.9392 54.6308 89.5241 0
M  V30 1326 C  2.6194 56.7586 87.9349 0 CFG=2
M  V30 1327 O  1.9985 57.3186 86.7939 0
M  V30 1328 C  3.0341 57.9261 88.8514 0
M  V30 1329 N  5.8353 55.6366 88.7601 0
M  V30 1330 C  6.7206 55.3305 89.8822 0 CFG=2
M  V30 1331 C  6.4458 56.2402 91.0906 0
M  V30 1332 O  5.8956 57.3310 90.9292 0
M  V30 1333 C  8.1731 55.5019 89.4063 0
M  V30 1334 N  6.8776 55.7827 92.2776 0
M  V30 1335 C  6.8322 56.5435 93.5287 0 CFG=2
M  V30 1336 C  7.7006 57.8148 93.4794 0
M  V30 1337 O  8.7155 57.8346 92.7825 0
M  V30 1338 C  7.2935 55.6259 94.6718 0
M  V30 1339 N  7.2990 58.8406 94.2490 0
M  V30 1340 C  7.9995 60.1278 94.3610 0 CFG=2
M  V30 1341 C  9.4151 60.0402 94.9710 0
M  V30 1342 O  10.2198 60.9390 94.7292 0
M  V30 1343 C  7.1259 61.1213 95.1626 0
M  V30 1344 C  5.7902 61.5240 94.4880 0
M  V30 1345 C  5.8810 62.5171 93.3124 0
M  V30 1346 O  7.0004 62.9457 92.9518 0
M  V30 1347 O  4.7944 62.8516 92.7908 0 CHG=-1
M  V30 1348 N  9.6983 58.9656 95.7279 0
M  V30 1349 C  11.0071 58.6983 96.3230 0
M  V30 1350 C  11.9052 57.8392 95.4144 0
M  V30 1351 O  13.0788 57.6705 95.7438 0
M  V30 1352 N  11.3827 57.2880 94.3012 0
M  V30 1353 C  12.1260 56.4302 93.3756 0 CFG=2
M  V30 1354 C  13.0861 57.2464 92.4952 0
M  V30 1355 O  12.6474 58.1748 91.8157 0
M  V30 1356 C  11.1386 55.6270 92.5143 0
M  V30 1357 N  14.3720 56.8630 92.5248 0
M  V30 1358 C  15.4527 57.4758 91.7531 0 CFG=2
M  V30 1359 C  15.9141 56.5241 90.6414 0
M  V30 1360 O  15.9001 55.3071 90.8359 0
M  V30 1361 C  16.6156 57.7882 92.7070 0
M  V30 1362 N  16.3185 57.1065 89.4994 0
M  V30 1363 C  16.7392 56.3824 88.2945 0 CFG=2
M  V30 1364 C  18.0012 57.0450 87.6981 0
M  V30 1365 O  18.2058 58.2377 87.9379 0
M  V30 1366 C  15.5866 56.3786 87.2626 0
M  V30 1367 C  14.2913 55.7686 87.7651 0
M  V30 1368 C  13.3022 56.5899 88.3492 0
M  V30 1369 C  14.1518 54.3663 87.8379 0
M  V30 1370 C  12.1919 56.0180 88.9517 0
M  V30 1371 C  13.0334 53.8138 88.4467 0
M  V30 1372 C  12.0615 54.6375 89.0029 0
M  V30 1373 N  18.8146 56.2927 86.9104 0
M  V30 1374 C  19.9807 56.8524 86.1893 0 CFG=2
M  V30 1375 C  19.5928 57.9467 85.1739 0
M  V30 1376 O  18.9970 57.6302 84.1458 0
M  V30 1377 C  20.6336 55.6263 85.5126 0
M  V30 1378 C  20.1064 54.4226 86.2691 0
M  V30 1379 C  18.7035 54.8514 86.6657 0
M  V30 1380 N  19.9125 59.2099 85.5054 0
M  V30 1381 C  19.5268 60.4285 84.7766 0 CFG=2
M  V30 1382 C  19.9014 60.4372 83.2799 0
M  V30 1383 O  19.1065 60.9033 82.4652 0
M  V30 1384 C  20.1400 61.6933 85.4626 0 CFG=2
M  V30 1385 C  19.5751 61.9062 86.8883 0
M  V30 1386 C  20.0810 63.0116 84.6516 0
M  V30 1387 C  18.0568 62.1339 86.9653 0
M  V30 1388 N  21.0928 59.9157 82.9508 0
M  V30 1389 C  21.6217 59.8797 81.5883 0 CFG=2
M  V30 1390 C  20.9114 58.8718 80.6661 0
M  V30 1391 O  20.8528 59.1246 79.4654 0
M  V30 1392 C  23.1345 59.6131 81.6470 0
M  V30 1393 C  23.9278 60.7727 82.2723 0
M  V30 1394 C  25.4273 60.4664 82.3506 0
M  V30 1395 C  26.2763 61.7046 82.6811 0
M  V30 1396 N  27.7165 61.4202 82.5717 0 CHG=1
M  V30 1397 N  20.3759 57.7747 81.2283 0
M  V30 1398 C  19.6383 56.7492 80.4865 0 CFG=2
M  V30 1399 C  18.1252 56.9952 80.4651 0
M  V30 1400 O  17.4957 56.6759 79.4600 0
M  V30 1401 C  19.9554 55.3530 81.0521 0
M  V30 1402 C  21.3441 54.8647 80.7731 0
M  V30 1403 C  21.6895 54.1054 79.7098 0
M  V30 1404 C  22.5930 55.1651 81.4717 0
M  V30 1405 N  23.0481 53.8825 79.7238 0
M  V30 1406 C  23.6618 54.5161 80.7817 0
M  V30 1407 C  22.9398 55.9249 82.6139 0
M  V30 1408 C  24.9991 54.6095 81.2046 0
M  V30 1409 C  24.2787 56.0353 83.0425 0
M  V30 1410 C  25.3082 55.3804 82.3395 0
M  V30 1411 N  17.5638 57.5350 81.5571 0
M  V30 1412 C  16.1210 57.7174 81.7310 0 CFG=2
M  V30 1413 C  15.5960 58.9339 80.9391 0
M  V30 1414 O  16.3072 59.9295 80.7987 0
M  V30 1415 C  15.7667 57.8856 83.2341 0 CFG=2
M  V30 1416 O  16.2721 56.7759 83.9491 0
M  V30 1417 C  14.2655 57.9471 83.5580 0
M  V30 1418 N  14.3616 58.8136 80.4224 0
M  V30 1419 C  13.6749 59.8416 79.6372 0 CFG=2
M  V30 1420 C  13.2324 61.0541 80.4943 0
M  V30 1421 O  13.0198 60.8718 81.6919 0
M  V30 1422 C  12.4671 59.1779 78.9671 0
M  V30 1423 N  13.0777 62.2602 79.8894 0
M  V30 1424 C  12.6767 63.4908 80.6093 0 CFG=2
M  V30 1425 C  11.3962 63.4078 81.4601 0
M  V30 1426 O  11.4238 63.8412 82.6078 0
M  V30 1427 C  12.5474 64.5510 79.5021 0
M  V30 1428 C  13.4926 64.0773 78.4167 0
M  V30 1429 C  13.3598 62.5624 78.4855 0
M  V30 1430 N  10.3170 62.8322 80.9053 0
M  V30 1431 C  9.0272 62.6360 81.5749 0 CFG=2
M  V30 1432 C  9.0939 61.5938 82.7099 0
M  V30 1433 O  8.3553 61.7242 83.6835 0
M  V30 1434 C  7.9310 62.3135 80.5226 0
M  V30 1435 C  7.8734 60.8803 79.9305 0
M  V30 1436 C  8.9649 60.4910 78.9235 0
M  V30 1437 O  9.7136 61.3725 78.4475 0
M  V30 1438 O  9.0231 59.2848 78.6096 0 CHG=-1
M  V30 1439 N  9.9975 60.6088 82.5847 0
M  V30 1440 C  10.2745 59.6005 83.6044 0 CFG=2
M  V30 1441 C  11.1595 60.1144 84.7568 0
M  V30 1442 O  11.0622 59.5723 85.8566 0
M  V30 1443 C  10.8824 58.3714 82.9188 0
M  V30 1444 N  11.9715 61.1579 84.5076 0
M  V30 1445 C  12.7447 61.8720 85.5289 0 CFG=2
M  V30 1446 C  11.8590 62.8811 86.2871 0
M  V30 1447 O  11.9183 62.9240 87.5154 0
M  V30 1448 C  13.9747 62.6224 84.9160 0 CFG=2
M  V30 1449 C  15.0220 61.6189 84.3846 0
M  V30 1450 C  14.6688 63.6367 85.8598 0
M  V30 1451 C  16.0002 62.2154 83.3645 0
M  V30 1452 N  11.0794 63.6801 85.5376 0
M  V30 1453 C  10.3382 64.8347 86.0544 0 CFG=2
M  V30 1454 C  8.9903 64.4614 86.6910 0
M  V30 1455 O  8.6086 65.1229 87.6558 0
M  V30 1456 C  10.1234 65.8711 84.9223 0
M  V30 1457 C  11.4115 66.5050 84.3745 0
M  V30 1458 O  12.4743 66.4320 84.9875 0
M  V30 1459 N  11.3157 67.1476 83.2089 0
M  V30 1460 N  8.2876 63.4520 86.1456 0
M  V30 1461 C  6.9314 63.0778 86.5755 0 CFG=2
M  V30 1462 C  6.8579 61.6446 87.1306 0
M  V30 1463 O  5.8346 61.2976 87.7199 0
M  V30 1464 C  5.9334 63.2233 85.4000 0
M  V30 1465 C  6.0528 64.4778 84.5460 0
M  V30 1466 C  6.1580 65.7557 85.1355 0
M  V30 1467 C  6.0667 64.3602 83.1415 0
M  V30 1468 C  6.3172 66.8977 84.3261 0
M  V30 1469 C  6.2242 65.4996 82.3303 0
M  V30 1470 C  6.3569 66.7699 82.9236 0
M  V30 1471 O  6.5213 67.8765 82.1427 0
M  V30 1472 N  7.9057 60.8278 86.9150 0
M  V30 1473 C  7.9370 59.4169 87.3084 0
M  V30 1474 C  7.1329 58.5134 86.3550 0
M  V30 1475 O  6.9685 57.3356 86.6634 0
M  V30 1476 N  6.6207 59.0423 85.2293 0
M  V30 1477 C  5.7811 58.3259 84.2691 0 CFG=2
M  V30 1478 C  6.6487 57.5870 83.2296 0
M  V30 1479 O  7.4540 58.2106 82.5380 0
M  V30 1480 C  4.8300 59.3060 83.5292 0 CFG=2
M  V30 1481 O  5.5282 60.3088 82.8095 0
M  V30 1482 C  3.8351 59.9949 84.4759 0
M  V30 1483 N  6.4504 56.2630 83.1478 0
M  V30 1484 C  7.1639 55.3568 82.2540 0 CFG=2
M  V30 1485 C  6.1916 54.6805 81.2802 0
M  V30 1486 O  5.3075 53.9439 81.7136 0
M  V30 1487 C  7.8881 54.2686 83.0634 0
M  V30 1488 C  9.0975 54.7047 83.8632 0
M  V30 1489 C  8.9415 55.2219 85.1648 0
M  V30 1490 C  10.3835 54.6662 83.2836 0
M  V30 1491 C  10.0557 55.6284 85.8856 0
M  V30 1492 C  11.4882 55.0459 84.0324 0
M  V30 1493 C  11.3233 55.5257 85.3257 0
M  V30 1494 N  6.4372 54.8914 79.9833 0
M  V30 1495 C  5.8236 54.1852 78.8568 0 CFG=2
M  V30 1496 C  6.9050 53.3147 78.1749 0
M  V30 1497 O  8.0665 53.3318 78.5862 0
M  V30 1498 C  5.3056 55.2112 77.8067 0 CFG=2
M  V30 1499 O  6.3453 56.0469 77.3360 0
M  V30 1500 C  4.1657 56.0974 78.3189 0
M  V30 1501 N  6.5194 52.5799 77.1166 0
M  V30 1502 C  7.4659 51.8999 76.2225 0 CFG=2
M  V30 1503 C  8.3532 52.8929 75.4315 0
M  V30 1504 O  9.4829 52.5464 75.0957 0
M  V30 1505 C  6.7248 50.9475 75.2354 0 CFG=2
M  V30 1506 C  7.6587 49.9854 74.4648 0
M  V30 1507 C  5.8051 51.6801 74.2332 0
M  V30 1508 C  8.5446 49.0989 75.3532 0
M  V30 1509 N  7.8536 54.1246 75.2156 0
M  V30 1510 C  8.5774 55.2390 74.6024 0 CFG=2
M  V30 1511 C  9.6760 55.8204 75.5151 0
M  V30 1512 O  10.6150 56.4237 74.9956 0
M  V30 1513 C  7.5841 56.3448 74.1899 0
M  V30 1514 C  6.4173 55.8878 73.2959 0
M  V30 1515 C  6.8609 55.3074 71.9453 0
M  V30 1516 C  5.6680 55.0423 71.0165 0
M  V30 1517 N  6.0970 54.4564 69.7367 0 CHG=1
M  V30 1518 N  9.5716 55.6084 76.8413 0
M  V30 1519 C  10.6215 55.9329 77.8140 0 CFG=2
M  V30 1520 C  11.8392 55.0111 77.6326 0
M  V30 1521 O  12.9700 55.4789 77.7515 0
M  V30 1522 C  10.0892 55.8069 79.2551 0
M  V30 1523 O  8.8902 56.5324 79.4185 0
M  V30 1524 N  11.5748 53.7346 77.2978 0
M  V30 1525 C  12.5817 52.7376 76.9315 0 CFG=2
M  V30 1526 C  13.1851 53.0058 75.5448 0
M  V30 1527 O  14.3518 52.6799 75.3512 0
M  V30 1528 C  12.0722 51.2775 76.9804 0
M  V30 1529 C  11.3133 50.8441 78.2423 0
M  V30 1530 O  11.5608 51.4058 79.3320 0
M  V30 1531 O  10.5826 49.8397 78.1203 0 CHG=-1
M  V30 1532 N  12.4158 53.5973 74.6096 0
M  V30 1533 C  12.9118 54.0050 73.2894 0 CFG=2
M  V30 1534 C  13.9868 55.1064 73.3956 0
M  V30 1535 O  14.9897 55.0067 72.6931 0
M  V30 1536 C  11.7724 54.4563 72.3282 0
M  V30 1537 C  12.2456 55.1629 71.0436 0
M  V30 1538 C  10.8627 53.2767 71.9478 0
M  V30 1539 N  13.8070 56.0728 74.3181 0
M  V30 1540 C  14.8324 57.0512 74.6996 0 CFG=2
M  V30 1541 C  16.0968 56.3763 75.2569 0
M  V30 1542 O  17.1949 56.7220 74.8225 0
M  V30 1543 C  14.2469 58.0788 75.6955 0
M  V30 1544 C  15.1695 59.1618 76.1928 0
M  V30 1545 C  16.2070 58.9925 77.0473 0
M  V30 1546 C  15.1587 60.5864 75.8726 0
M  V30 1547 N  16.8615 60.1887 77.2377 0
M  V30 1548 C  16.2611 61.2092 76.5336 0
M  V30 1549 C  14.3258 61.4245 75.0965 0
M  V30 1550 C  16.5322 62.5817 76.4121 0
M  V30 1551 C  14.5784 62.8064 74.9772 0
M  V30 1552 C  15.6841 63.3852 75.6287 0
M  V30 1553 N  15.9083 55.4218 76.1868 0
M  V30 1554 C  16.9752 54.6441 76.8222 0 CFG=2
M  V30 1555 C  17.7592 53.7703 75.8263 0
M  V30 1556 O  18.9525 53.5616 76.0338 0
M  V30 1557 C  16.3824 53.7718 77.9452 0
M  V30 1558 O  15.7140 54.5514 78.9136 0
M  V30 1559 N  17.0907 53.3249 74.7469 0
M  V30 1560 C  17.6946 52.6321 73.6137 0 CFG=2
M  V30 1561 C  18.5605 53.5577 72.7438 0
M  V30 1562 O  19.5984 53.1119 72.2647 0
M  V30 1563 C  16.6130 51.9080 72.7873 0
M  V30 1564 C  17.1476 51.1322 71.5981 0
M  V30 1565 C  17.8824 49.9473 71.8133 0
M  V30 1566 C  17.0653 51.6678 70.2947 0
M  V30 1567 C  18.4889 49.3076 70.7435 0
M  V30 1568 C  17.6710 51.0049 69.2367 0
M  V30 1569 C  18.3807 49.8327 69.4658 0
M  V30 1570 N  18.1527 54.8300 72.5912 0
M  V30 1571 C  18.9251 55.8630 71.8983 0
M  V30 1572 C  20.2485 56.1555 72.6214 0
M  V30 1573 O  21.2531 56.3932 71.9561 0
M  V30 1574 N  20.2529 56.0917 73.9662 0
M  V30 1575 C  21.4437 56.2018 74.8143 0 CFG=2
M  V30 1576 C  22.3099 54.9214 74.7575 0
M  V30 1577 O  23.5345 55.0290 74.7961 0
M  V30 1578 C  21.0654 56.5032 76.2987 0 CFG=2
M  V30 1579 C  20.1909 57.7745 76.4425 0
M  V30 1580 C  22.2736 56.5692 77.2599 0
M  V30 1581 C  20.9092 59.1020 76.1640 0
M  V30 1582 N  21.6696 53.7462 74.6192 0
M  V30 1583 C  22.3147 52.4365 74.4734 0 CFG=2
M  V30 1584 C  23.0856 52.2950 73.1457 0
M  V30 1585 O  24.1383 51.6588 73.1375 0
M  V30 1586 C  21.2442 51.3384 74.6757 0
M  V30 1587 C  21.7529 49.9080 74.9615 0
M  V30 1588 C  20.6386 49.0730 75.6074 0
M  V30 1589 C  22.2986 49.1745 73.7264 0
M  V30 1590 N  22.5890 52.9291 72.0661 0
M  V30 1591 C  23.2740 53.0395 70.7725 0 CFG=2
M  V30 1592 C  24.6047 53.8118 70.8680 0
M  V30 1593 O  25.5283 53.4902 70.1196 0
M  V30 1594 C  22.3457 53.7102 69.7320 0
M  V30 1595 C  21.1543 52.8516 69.2560 0
M  V30 1596 C  20.1332 53.7031 68.4663 0
M  V30 1597 C  21.6159 51.6035 68.4784 0
M  V30 1598 N  24.6913 54.7885 71.7925 0
M  V30 1599 C  25.9233 55.5254 72.0848 0 CFG=2
M  V30 1600 C  26.9587 54.6594 72.8261 0
M  V30 1601 O  28.1358 54.7627 72.4970 0
M  V30 1602 C  25.6968 56.8624 72.8509 0 CFG=2
M  V30 1603 O  25.6849 56.7668 74.2640 0
M  V30 1604 C  24.4698 57.6359 72.3638 0
M  V30 1605 N  26.5125 53.7827 73.7475 0
M  V30 1606 C  27.3667 52.7996 74.4243 0 CFG=2
M  V30 1607 C  27.9274 51.7404 73.4584 0
M  V30 1608 O  29.0869 51.3639 73.6013 0
M  V30 1609 C  26.6128 52.1175 75.5842 0
M  V30 1610 C  26.1523 53.0792 76.6957 0
M  V30 1611 C  25.4585 52.3241 77.8343 0
M  V30 1612 O  24.2576 52.0129 77.6731 0
M  V30 1613 O  26.1316 52.0630 78.8553 0 CHG=-1
M  V30 1614 N  27.1158 51.3118 72.4768 0
M  V30 1615 C  27.4954 50.3713 71.4200 0 CFG=2
M  V30 1616 C  28.6382 50.8877 70.5207 0
M  V30 1617 O  29.6183 50.1675 70.3286 0
M  V30 1618 C  26.2492 49.9505 70.5725 0 CFG=2
M  V30 1619 C  25.4287 48.8953 71.3445 0
M  V30 1620 C  26.5225 49.4511 69.1354 0
M  V30 1621 C  24.0643 48.5756 70.7188 0
M  V30 1622 N  28.4861 52.1147 69.9931 0
M  V30 1623 C  29.3793 52.6802 68.9782 0 CFG=2
M  V30 1624 C  30.7051 53.2447 69.5435 0
M  V30 1625 O  31.6883 53.2982 68.8059 0
M  V30 1626 C  28.6300 53.7615 68.1452 0
M  V30 1627 C  28.4535 55.1216 68.8486 0
M  V30 1628 C  29.2479 53.9636 66.7540 0
M  V30 1629 N  30.7202 53.6166 70.8354 0
M  V30 1630 C  31.9029 54.1063 71.5577 0 CFG=2
M  V30 1631 C  32.6483 52.9911 72.3269 0
M  V30 1632 O  33.6833 53.2816 72.9280 0
M  V30 1633 C  31.5054 55.1773 72.6041 0 CFG=2
M  V30 1634 O  30.6535 54.6342 73.5987 0
M  V30 1635 C  30.8574 56.4208 71.9849 0
M  V30 1636 N  32.1240 51.7534 72.2983 0
M  V30 1637 C  32.6717 50.5645 72.9571 0 CFG=2
M  V30 1638 C  32.6426 50.6407 74.5002 0
M  V30 1639 O  33.6216 50.2939 75.1617 0
M  V30 1640 C  34.0514 50.1670 72.3747 0
M  V30 1641 C  34.0217 49.7956 70.9119 0
M  V30 1642 N  34.0715 48.4846 70.4709 0
M  V30 1643 C  33.9723 50.5655 69.7699 0
M  V30 1644 C  34.0455 48.5138 69.1359 0
M  V30 1645 N  33.9818 49.7434 68.6410 0
M  V30 1646 N  31.4846 51.0518 75.0383 0
M  V30 1647 C  31.1593 50.9982 76.4600 0
M  V30 1648 C  31.4993 52.2916 77.2170 0
M  V30 1649 O  31.5246 52.2577 78.4479 0
M  V30 1650 N  31.7511 53.4186 76.5217 0
M  V30 1651 C  31.9692 54.7353 77.1372 0 CFG=2
M  V30 1652 C  30.6712 55.2799 77.7632 0
M  V30 1653 O  29.5878 55.0613 77.2176 0
M  V30 1654 C  32.5321 55.7086 76.0782 0
M  V30 1655 C  33.0811 57.0490 76.6024 0
M  V30 1656 C  33.4979 57.9711 75.4428 0
M  V30 1657 N  34.2324 59.1663 75.8966 0
M  V30 1658 C  34.7439 60.1391 75.1144 0
M  V30 1659 N  34.5996 60.1310 73.7795 0
M  V30 1660 N  35.4246 61.1426 75.6824 0 CHG=1
M  V30 1661 N  30.8211 55.9982 78.8872 0
M  V30 1662 C  29.7340 56.6478 79.6219 0 CFG=2
M  V30 1663 C  29.0864 57.7693 78.7627 0
M  V30 1664 O  29.8278 58.6130 78.2522 0
M  V30 1665 C  30.2852 57.2666 80.9465 0 CFG=2
M  V30 1666 C  30.7806 56.1533 81.9020 0
M  V30 1667 C  29.2886 58.1865 81.6929 0
M  V30 1668 C  31.5947 56.6672 83.0996 0
M  V30 1669 N  27.7386 57.7554 78.6007 0
M  V30 1670 C  27.0099 58.7707 77.8099 0 CFG=2
M  V30 1671 C  27.1443 60.1983 78.3716 0
M  V30 1672 O  27.3276 60.3652 79.5761 0
M  V30 1673 C  25.5548 58.2766 77.8417 0
M  V30 1674 C  25.4404 57.4592 79.1118 0
M  V30 1675 C  26.8073 56.8029 79.2121 0
M  V30 1676 N  27.0802 61.1960 77.4742 0
M  V30 1677 C  27.3115 62.6227 77.7462 0 CFG=2
M  V30 1678 C  28.7200 62.8797 78.3411 0
M  V30 1679 O  28.8106 63.2106 79.5260 0
M  V30 1680 C  26.1866 63.2091 78.6337 0
M  V30 1681 C  24.7711 63.0741 78.1003 0
M  V30 1682 C  24.2546 64.0313 77.2017 0
M  V30 1683 C  23.9485 62.0178 78.5429 0
M  V30 1684 C  22.9273 63.9264 76.7417 0
M  V30 1685 C  22.6236 61.9124 78.0803 0
M  V30 1686 C  22.1137 62.8610 77.1733 0
M  V30 1687 O  20.8341 62.7483 76.7144 0
M  V30 1688 N  29.7965 62.6518 77.5458 0
M  V30 1689 C  31.1878 62.7253 78.0394 0 CFG=2
M  V30 1690 C  31.5882 64.0966 78.6146 0
M  V30 1691 O  31.4388 65.1119 77.9343 0
M  V30 1692 C  32.0428 62.3491 76.8149 0
M  V30 1693 C  31.1093 61.5689 75.9090 0
M  V30 1694 C  29.7757 62.2659 76.1308 0
M  V30 1695 N  32.0807 64.0834 79.8639 0
M  V30 1696 C  32.5687 65.2674 80.5739 0
M  V30 1697 C  31.4479 66.0963 81.2257 0
M  V30 1698 O  31.7491 67.1555 81.7733 0
M  V30 1699 N  30.1846 65.6367 81.1749 0
M  V30 1700 C  29.0229 66.3226 81.7426 0 CFG=2
M  V30 1701 C  28.5280 65.5856 82.9935 0
M  V30 1702 O  28.4753 64.3551 82.9987 0
M  V30 1703 C  27.8886 66.3766 80.6996 0
M  V30 1704 C  28.2654 67.0820 79.3856 0
M  V30 1705 S  26.9820 67.0365 78.1045 0
M  V30 1706 C  25.7281 68.1030 78.8568 0
M  V30 1707 N  28.1180 66.3625 84.0059 0
M  V30 1708 C  27.4017 65.8855 85.1907 0 CFG=2
M  V30 1709 C  25.8865 65.7686 84.8997 0
M  V30 1710 O  25.4119 66.2853 83.8893 0
M  V30 1711 C  27.6169 66.8625 86.3813 0 CFG=2
M  V30 1712 O  26.9212 68.0854 86.2264 0
M  V30 1713 C  29.0926 67.1456 86.7033 0
M  V30 1714 N  25.1489 65.0908 85.7948 0
M  V30 1715 C  23.6931 64.8993 85.7097 0 CFG=2
M  V30 1716 C  22.8578 66.2028 85.6190 0
M  V30 1717 O  22.0042 66.2502 84.7332 0
M  V30 1718 C  23.2184 63.9968 86.8743 0
M  V30 1719 C  23.7068 62.5434 86.7977 0
M  V30 1720 O  24.0864 62.0465 85.7389 0
M  V30 1721 N  23.6740 61.8419 87.9319 0
M  V30 1722 N  23.1133 67.2505 86.4454 0
M  V30 1723 C  22.4259 68.5470 86.2747 0 CFG=2
M  V30 1724 C  22.8155 69.3408 85.0111 0
M  V30 1725 O  21.9624 70.0727 84.5101 0
M  V30 1726 C  22.7233 69.3161 87.5710 0
M  V30 1727 C  24.0152 68.7101 88.0861 0
M  V30 1728 C  23.8891 67.2439 87.6893 0
M  V30 1729 N  24.0435 69.1575 84.4835 0
M  V30 1730 C  24.4401 69.6911 83.1733 0 CFG=2
M  V30 1731 C  23.6783 69.0256 82.0184 0
M  V30 1732 O  23.2268 69.7358 81.1234 0
M  V30 1733 C  25.9616 69.5848 82.9470 0
M  V30 1734 C  26.7824 70.5678 83.8010 0
M  V30 1735 C  28.2831 70.4761 83.4978 0
M  V30 1736 O  28.8714 69.4185 83.8133 0
M  V30 1737 O  28.8218 71.4643 82.9528 0 CHG=-1
M  V30 1738 N  23.5117 67.6929 82.0783 0
M  V30 1739 C  22.7319 66.9113 81.1175 0 CFG=2
M  V30 1740 C  21.2541 67.3357 81.0745 0
M  V30 1741 O  20.7564 67.5910 79.9819 0
M  V30 1742 C  22.8694 65.3812 81.3699 0
M  V30 1743 C  21.8234 64.4837 80.6729 0
M  V30 1744 C  24.2784 64.9213 80.9706 0
M  V30 1745 N  20.6127 67.4806 82.2471 0
M  V30 1746 C  19.2383 67.9768 82.3829 0 CFG=2
M  V30 1747 C  19.0558 69.4014 81.8133 0
M  V30 1748 O  18.0880 69.6282 81.0899 0
M  V30 1749 C  18.7514 67.9190 83.8648 0 CFG=2
M  V30 1750 C  18.6054 66.4494 84.3278 0
M  V30 1751 C  17.4428 68.6925 84.1600 0
M  V30 1752 C  18.4999 66.2804 85.8515 0
M  V30 1753 N  20.0107 70.3052 82.0989 0
M  V30 1754 C  20.0183 71.6853 81.6107 0 CFG=2
M  V30 1755 C  20.1434 71.8042 80.0813 0
M  V30 1756 O  19.4188 72.6025 79.4923 0
M  V30 1757 C  21.1343 72.4716 82.3144 0
M  V30 1758 N  21.0217 70.9937 79.4631 0
M  V30 1759 C  21.2101 70.9272 78.0069 0 CFG=2
M  V30 1760 C  19.9924 70.3086 77.2942 0
M  V30 1761 O  19.6203 70.8142 76.2366 0
M  V30 1762 C  22.5204 70.1656 77.6883 0
M  V30 1763 C  23.7792 71.0388 77.8010 0
M  V30 1764 O  24.3594 71.4258 76.7905 0
M  V30 1765 N  24.2249 71.3481 79.0184 0
M  V30 1766 N  19.3607 69.2813 77.8925 0
M  V30 1767 C  18.1263 68.6623 77.3917 0 CFG=2
M  V30 1768 C  16.9244 69.6275 77.3756 0
M  V30 1769 O  16.1284 69.5696 76.4390 0
M  V30 1770 C  17.8140 67.3753 78.1883 0
M  V30 1771 C  18.7758 66.1989 77.8973 0
M  V30 1772 C  18.5715 65.0606 78.9099 0
M  V30 1773 C  18.6834 65.6872 76.4525 0
M  V30 1774 N  16.8455 70.5291 78.3680 0
M  V30 1775 C  15.8403 71.5927 78.4554 0 CFG=2
M  V30 1776 C  16.0304 72.7321 77.4317 0
M  V30 1777 O  15.0434 73.3852 77.0952 0
M  V30 1778 C  15.7968 72.1218 79.9015 0
M  V30 1779 C  15.1433 71.1161 80.8797 0
M  V30 1780 C  15.2586 71.4597 82.3747 0
M  V30 1781 O  15.9572 72.4369 82.7280 0
M  V30 1782 O  14.6340 70.7129 83.1601 0 CHG=-1
M  V30 1783 N  17.2605 72.9253 76.9183 0
M  V30 1784 C  17.5661 73.8542 75.8197 0 CFG=2
M  V30 1785 C  17.2415 73.2828 74.4243 0
M  V30 1786 O  17.3402 74.0266 73.4484 0
M  V30 1787 C  19.0503 74.2736 75.8802 0
M  V30 1788 C  19.4145 75.0832 77.1374 0
M  V30 1789 C  20.8917 75.5124 77.1903 0
M  V30 1790 N  21.2007 76.5712 76.2100 0
M  V30 1791 C  22.3777 77.1970 76.0233 0
M  V30 1792 N  23.4703 76.8924 76.7405 0
M  V30 1793 N  22.4576 78.1565 75.0926 0 CHG=1
M  V30 1794 N  16.8747 71.9934 74.3412 0
M  V30 1795 C  16.5791 71.3051 73.0865 0
M  V30 1796 C  17.8255 70.6330 72.4878 0
M  V30 1797 O  17.6937 69.9570 71.4674 0
M  V30 1798 N  19.0122 70.7734 73.1121 0
M  V30 1799 C  20.2180 70.0280 72.7454 0 CFG=2
M  V30 1800 C  20.0886 68.5587 73.1646 0
M  V30 1801 O  19.4953 68.2669 74.2013 0
M  V30 1802 C  21.4719 70.6138 73.4330 0
M  V30 1803 C  21.8183 72.0740 73.1962 0
M  V30 1804 C  21.5637 72.7064 71.9600 0
M  V30 1805 C  22.4719 72.7912 74.2193 0
M  V30 1806 C  21.9773 74.0364 71.7489 0
M  V30 1807 C  22.9006 74.1130 74.0036 0
M  V30 1808 C  22.6591 74.7349 72.7643 0
M  V30 1809 O  23.0915 76.0093 72.5437 0
M  V30 1810 N  20.7081 67.6765 72.3751 0
M  V30 1811 C  20.9303 66.2754 72.7195 0 CFG=2
M  V30 1812 C  22.4361 66.0170 72.8276 0
M  V30 1813 O  23.2323 66.9473 72.6759 0
M  V30 1814 C  20.2360 65.3759 71.6715 0
M  V30 1815 C  18.7087 65.5676 71.5650 0
M  V30 1816 C  17.9751 65.3957 72.9070 0
M  V30 1817 N  16.5277 65.6235 72.7951 0
M  V30 1818 C  15.7769 66.5942 73.3470 0
M  V30 1819 N  16.3037 67.6030 74.0524 0
M  V30 1820 N  14.4493 66.5357 73.1932 0 CHG=1
M  V30 1821 N  22.8004 64.7565 73.1191 0
M  V30 1822 C  24.1891 64.3116 73.2201 0 CFG=2
M  V30 1823 C  24.9500 64.5783 71.9138 0
M  V30 1824 O  24.4590 64.2132 70.8442 0
M  V30 1825 C  24.2279 62.8142 73.5779 0
M  V30 1826 C  25.5898 62.3526 74.1260 0
M  V30 1827 S  25.8184 60.5606 74.2658 0
M  V30 1828 C  24.3049 60.0901 75.1439 0
M  V30 1829 N  26.1244 65.2145 72.0411 0
M  V30 1830 C  27.0467 65.5036 70.9429 0 CFG=2
M  V30 1831 C  27.4860 64.2015 70.2461 0
M  V30 1832 O  27.6998 63.2050 70.9392 0
M  V30 1833 C  28.3094 66.2459 71.4766 0
M  V30 1834 C  29.4406 66.4419 70.4427 0
M  V30 1835 C  27.9342 67.6116 72.0818 0
M  V30 1836 N  27.5977 64.2584 68.9043 0
M  V30 1837 C  28.0285 63.1868 67.9954 0 CFG=2
M  V30 1838 C  29.2282 62.3915 68.5529 0
M  V30 1839 O  30.3302 62.9433 68.5728 0
M  V30 1840 C  28.4103 63.8227 66.6420 0
M  V30 1841 C  27.1948 64.2752 65.8231 0
M  V30 1842 C  27.5901 64.8956 64.4763 0
M  V30 1843 N  26.4113 65.3031 63.6974 0
M  V30 1844 C  25.7008 66.4413 63.7717 0
M  V30 1845 N  26.0213 67.4319 64.6178 0
M  V30 1846 N  24.6377 66.5797 62.9697 0 CHG=1
M  V30 1847 N  28.9947 61.1405 69.0273 0
M  V30 1848 C  30.0772 60.2744 69.5295 0 CFG=2
M  V30 1849 C  31.1535 59.9999 68.4659 0
M  V30 1850 O  30.8231 59.9038 67.2836 0
M  V30 1851 C  29.3564 58.9892 69.9751 0
M  V30 1852 C  27.9024 59.3793 70.1693 0
M  V30 1853 C  27.6958 60.4661 69.1279 0
M  V30 1854 N  32.4183 59.9273 68.9067 0
M  V30 1855 C  33.6006 59.7525 68.0544 0 CFG=2
M  V30 1856 C  33.5007 58.4910 67.1758 0
M  V30 1857 O  33.3583 57.3892 67.7063 0
M  V30 1858 C  34.9260 59.7546 68.8618 0
M  V30 1859 C  35.1595 60.9655 69.7892 0
M  V30 1860 O  34.6165 62.0575 69.5066 0
M  V30 1861 O  35.9962 60.8125 70.7066 0 CHG=-1
M  V30 1862 N  33.5507 58.7060 65.8484 0
M  V30 1863 C  33.4298 57.7048 64.7758 0 CFG=2
M  V30 1864 C  32.0241 57.0703 64.6559 0
M  V30 1865 O  31.9080 55.9766 64.1028 0
M  V30 1866 C  34.5565 56.6363 64.8507 0
M  V30 1867 C  35.9673 57.2332 64.8105 0
M  V30 1868 O  36.2927 58.0084 63.9143 0
M  V30 1869 N  36.8134 56.8654 65.7745 0
M  V30 1870 N  30.9758 57.7689 65.1297 0
M  V30 1871 C  29.5755 57.3722 64.9640 0 CFG=2
M  V30 1872 C  29.1046 57.6998 63.5279 0
M  V30 1873 O  29.1882 58.8709 63.1514 0
M  V30 1874 C  28.6797 58.0823 66.0030 0
M  V30 1875 S  26.9449 57.5460 65.8991 0
M  V30 1876 N  28.5919 56.6998 62.7644 0
M  V30 1877 C  27.8644 56.9481 61.4998 0 CFG=2
M  V30 1878 C  26.6917 57.9264 61.6652 0
M  V30 1879 O  25.9479 57.8076 62.6394 0
M  V30 1880 C  27.3474 55.5590 61.0815 0
M  V30 1881 C  28.2650 54.5757 61.7760 0
M  V30 1882 C  28.5886 55.2726 63.0885 0
M  V30 1883 N  26.5558 58.8752 60.7248 0
M  V30 1884 C  25.5063 59.8968 60.7606 0 CFG=2
M  V30 1885 C  24.0796 59.3248 60.6405 0
M  V30 1886 O  23.1655 59.8787 61.2461 0
M  V30 1887 C  25.8134 60.9976 59.7174 0
M  V30 1888 C  24.8362 62.2035 59.6801 0
M  V30 1889 C  24.7855 63.0829 60.9450 0
M  V30 1890 O  25.6517 62.9299 61.8338 0
M  V30 1891 O  23.8726 63.9353 61.0036 0 CHG=-1
M  V30 1892 N  23.9301 58.1957 59.9263 0
M  V30 1893 C  22.6959 57.4116 59.8355 0 CFG=2
M  V30 1894 C  22.2493 56.8500 61.1976 0
M  V30 1895 O  21.0671 56.9486 61.5279 0
M  V30 1896 C  22.8869 56.2650 58.8248 0
M  V30 1897 C  23.2409 56.7305 57.3999 0
M  V30 1898 C  23.4395 55.5394 56.4571 0
M  V30 1899 O  22.4132 55.0083 55.9775 0
M  V30 1900 O  24.6160 55.1761 56.2355 0 CHG=-1
M  V30 1901 N  23.2120 56.3162 61.9736 0
M  V30 1902 C  22.9974 55.8329 63.3370 0 CFG=2
M  V30 1903 C  22.7308 56.9870 64.3189 0
M  V30 1904 O  21.8571 56.8330 65.1675 0
M  V30 1905 C  24.1882 54.9493 63.7837 0
M  V30 1906 C  23.9740 54.1896 65.1185 0
M  V30 1907 C  22.8299 53.1555 65.0264 0
M  V30 1908 C  25.2914 53.5713 65.6360 0
M  V30 1909 N  23.4402 58.1229 64.1672 0
M  V30 1910 C  23.2519 59.3217 64.9890 0 CFG=2
M  V30 1911 C  21.8571 59.9488 64.8332 0
M  V30 1912 O  21.2700 60.3471 65.8361 0
M  V30 1913 C  24.3668 60.3588 64.7356 0
M  V30 1914 C  24.2568 61.5922 65.6194 0
M  V30 1915 C  24.5460 61.4909 66.9960 0
M  V30 1916 C  23.8065 62.8204 65.0889 0
M  V30 1917 C  24.3673 62.6010 67.8419 0
M  V30 1918 C  23.6381 63.9346 65.9343 0
M  V30 1919 C  23.9121 63.8243 67.3122 0
M  V30 1920 O  23.7409 64.9020 68.1310 0
M  V30 1921 N  21.3373 59.9948 63.5964 0
M  V30 1922 C  19.9802 60.4541 63.3102 0 CFG=2
M  V30 1923 C  18.8877 59.5127 63.8443 0
M  V30 1924 O  17.8325 60.0132 64.2262 0
M  V30 1925 C  19.8228 60.7453 61.8016 0
M  V30 1926 C  20.5755 62.0037 61.3089 0
M  V30 1927 C  20.1297 63.3106 61.9735 0
M  V30 1928 O  18.9782 63.4561 62.3787 0
M  V30 1929 N  21.0400 64.2801 62.0726 0
M  V30 1930 N  19.1738 58.1994 63.9379 0
M  V30 1931 C  18.3104 57.2172 64.6017 0 CFG=2
M  V30 1932 C  18.2693 57.4020 66.1356 0
M  V30 1933 O  17.2185 57.1534 66.7278 0
M  V30 1934 C  18.7237 55.7846 64.1851 0
M  V30 1935 C  17.7434 54.6681 64.6208 0
M  V30 1936 C  16.3558 54.8296 63.9659 0
M  V30 1937 C  18.3421 53.2697 64.3758 0
M  V30 1938 N  19.3666 57.8960 66.7458 0
M  V30 1939 C  19.3812 58.3405 68.1454 0 CFG=2
M  V30 1940 C  18.4980 59.5817 68.3644 0
M  V30 1941 O  17.8435 59.6575 69.3977 0
M  V30 1942 C  20.8018 58.6626 68.6515 0
M  V30 1943 C  21.8559 57.5572 68.5413 0
M  V30 1944 S  23.5304 58.2183 68.7538 0
M  V30 1945 C  24.5189 56.7390 68.4442 0
M  V30 1946 N  18.4689 60.5219 67.4016 0
M  V30 1947 C  17.6184 61.7152 67.4722 0 CFG=2
M  V30 1948 C  16.1194 61.4193 67.2770 0
M  V30 1949 O  15.3098 62.1644 67.8295 0
M  V30 1950 C  18.0947 62.8064 66.4977 0
M  V30 1951 C  19.5216 63.3185 66.7849 0
M  V30 1952 C  19.9513 64.5456 65.9595 0
M  V30 1953 N  19.0831 65.7199 66.1764 0
M  V30 1954 C  18.0369 66.1302 65.4320 0
M  V30 1955 N  17.6646 65.5135 64.2999 0
M  V30 1956 N  17.3401 67.1992 65.8372 0 CHG=1
M  V30 1957 N  15.7695 60.3322 66.5595 0
M  V30 1958 C  14.4027 59.7958 66.5097 0 CFG=2
M  V30 1959 C  13.9730 59.2594 67.8851 0
M  V30 1960 O  12.8686 59.5685 68.3309 0
M  V30 1961 C  14.2692 58.6805 65.4461 0
M  V30 1962 C  14.4540 59.1217 63.9786 0
M  V30 1963 C  14.4446 57.8989 63.0379 0
M  V30 1964 C  13.4258 60.1809 63.5433 0
M  V30 1965 N  14.8833 58.5213 68.5466 0
M  V30 1966 C  14.7308 58.0141 69.9113 0 CFG=2
M  V30 1967 C  14.5914 59.1308 70.9616 0
M  V30 1968 O  13.9155 58.9168 71.9649 0
M  V30 1969 C  15.9039 57.1027 70.3206 0
M  V30 1970 S  15.8992 55.5534 69.3875 0
M  V30 1971 N  15.2296 60.2863 70.7139 0
M  V30 1972 C  15.3006 61.4123 71.6389 0 CFG=2
M  V30 1973 C  14.3505 62.5707 71.2757 0
M  V30 1974 O  14.6345 63.7009 71.6650 0
M  V30 1975 C  16.7604 61.9027 71.7627 0
M  V30 1976 C  17.8226 60.9359 72.1974 0
M  V30 1977 C  17.6768 59.9234 73.0834 0
M  V30 1978 C  19.2411 60.9580 71.8473 0
M  V30 1979 N  18.8942 59.3067 73.2839 0
M  V30 1980 C  19.8987 59.9029 72.5477 0
M  V30 1981 C  20.0405 61.7595 70.9968 0
M  V30 1982 C  21.2781 59.6612 72.4119 0
M  V30 1983 C  21.4243 61.5290 70.8563 0
M  V30 1984 C  22.0428 60.4800 71.5621 0
M  V30 1985 N  13.2290 62.3201 70.5763 0
M  V30 1986 C  12.2111 63.3556 70.3341 0 CFG=2
M  V30 1987 C  11.5192 63.8171 71.6305 0
M  V30 1988 O  11.3891 63.0242 72.5606 0
M  V30 1989 C  11.2009 62.8774 69.2779 0
M  V30 1990 C  11.7948 62.9149 67.8617 0
M  V30 1991 C  10.7437 62.6409 66.7791 0
M  V30 1992 C  11.2935 62.6697 65.3456 0
M  V30 1993 N  11.6625 64.0266 64.9041 0 CHG=1
M  V30 1994 N  11.1311 65.1036 71.6777 0
M  V30 1995 C  10.6028 65.7722 72.8722 0 CFG=2
M  V30 1996 C  9.3133 65.1291 73.4146 0
M  V30 1997 O  9.2743 64.7565 74.5869 0
M  V30 1998 C  10.4483 67.2853 72.5827 0
M  V30 1999 C  9.9418 68.1552 73.7616 0
M  V30 2000 C  10.8829 68.2611 74.9769 0
M  V30 2001 O  12.1047 68.0344 74.8197 0
M  V30 2002 O  10.3569 68.5922 76.0615 0 CHG=-1
M  V30 2003 N  8.3121 64.9714 72.5336 0
M  V30 2004 C  7.0761 64.2451 72.8153 0 CFG=2
M  V30 2005 C  7.3344 62.7254 72.7023 0
M  V30 2006 O  7.8273 62.3010 71.6539 0
M  V30 2007 C  6.0035 64.6761 71.7962 0
M  V30 2008 C  5.6083 66.1627 71.8994 0
M  V30 2009 C  4.2593 66.5220 71.2495 0
M  V30 2010 N  4.1885 66.2096 69.8087 0
M  V30 2011 C  3.0787 66.0537 69.0589 0
M  V30 2012 N  1.8473 66.0460 69.5903 0
M  V30 2013 N  3.2045 65.9028 67.7356 0 CHG=1
M  V30 2014 N  7.0038 61.9333 73.7547 0
M  V30 2015 C  7.0849 60.4564 73.7207 0 CFG=2
M  V30 2016 C  6.4116 59.7623 72.5234 0
M  V30 2017 O  6.9908 58.8229 71.9830 0
M  V30 2018 C  6.4650 60.0137 75.0559 0
M  V30 2019 C  6.7156 61.1824 75.9867 0
M  V30 2020 C  6.5624 62.3907 75.0754 0
M  V30 2021 N  5.2310 60.2544 72.1117 0
M  V30 2022 C  4.4457 59.7331 70.9918 0 CFG=2
M  V30 2023 C  5.1264 59.8472 69.6107 0
M  V30 2024 O  4.8356 59.0182 68.7485 0
M  V30 2025 C  3.0321 60.3633 70.9984 0
M  V30 2026 C  2.9519 61.9107 70.8829 0
M  V30 2027 C  2.7184 62.6704 72.2020 0
M  V30 2028 O  3.2276 62.2219 73.2537 0
M  V30 2029 O  2.0550 63.7284 72.1320 0 CHG=-1
M  V30 2030 N  6.0268 60.8322 69.4304 0
M  V30 2031 C  6.7941 61.0369 68.1926 0 CFG=2
M  V30 2032 C  7.9720 60.0627 68.0364 0
M  V30 2033 O  8.4149 59.8535 66.9064 0
M  V30 2034 C  7.3166 62.4850 68.0146 0
M  V30 2035 C  6.2692 63.6070 68.0197 0
M  V30 2036 O  5.0692 63.3127 67.8299 0
M  V30 2037 O  6.7064 64.7774 68.0955 0 CHG=-1
M  V30 2038 N  8.4566 59.4833 69.1485 0
M  V30 2039 C  9.5219 58.4798 69.1547 0 CFG=2
M  V30 2040 C  9.0390 57.1724 68.4885 0
M  V30 2041 O  7.8903 56.7840 68.7124 0
M  V30 2042 C  9.9571 58.1981 70.6034 0
M  V30 2043 C  10.4115 59.4358 71.3864 0
M  V30 2044 C  10.6991 59.0966 72.8535 0
M  V30 2045 N  10.8894 60.3213 73.6396 0
M  V30 2046 C  10.7029 60.4825 74.9586 0
M  V30 2047 N  10.4471 59.4481 75.7682 0
M  V30 2048 N  10.7545 61.7169 75.4703 0 CHG=1
M  V30 2049 N  9.9003 56.5290 67.6688 0
M  V30 2050 C  9.5217 55.3316 66.8994 0 CFG=2
M  V30 2051 C  9.2534 54.0988 67.7762 0
M  V30 2052 O  9.7748 54.0033 68.8855 0
M  V30 2053 C  10.7373 55.0984 65.9898 0
M  V30 2054 C  11.9142 55.6653 66.7631 0
M  V30 2055 C  11.3055 56.8753 67.4546 0
M  V30 2056 N  8.4695 53.1568 67.2327 0
M  V30 2057 C  8.3095 51.8110 67.7887 0 CFG=2
M  V30 2058 C  9.6336 51.0198 67.7075 0
M  V30 2059 O  10.4377 51.2644 66.8073 0
M  V30 2060 C  7.2251 51.0124 67.0100 0 CFG=2
M  V30 2061 O  7.6004 50.7198 65.6743 0
M  V30 2062 C  5.8530 51.7027 66.9997 0
M  V30 2063 N  9.8226 50.0614 68.6276 0
M  V30 2064 C  10.9485 49.1233 68.6008 0 CFG=2
M  V30 2065 C  10.9962 48.2067 67.3685 0
M  V30 2066 O  12.0869 47.7836 66.9883 0
M  V30 2067 C  10.9966 48.2960 69.8939 0
M  V30 2068 C  11.6733 48.9908 71.0505 0
M  V30 2069 C  13.0695 49.1815 71.0206 0
M  V30 2070 C  10.9226 49.5041 72.1274 0
M  V30 2071 C  13.7025 49.7921 72.0900 0
M  V30 2072 C  11.5787 50.1150 73.1862 0
M  V30 2073 C  12.9625 50.2413 73.1743 0
M  V30 2074 N  9.8292 47.9544 66.7524 0
M  V30 2075 C  9.6864 47.2246 65.4945 0 CFG=2
M  V30 2076 C  10.3097 47.9982 64.3087 0
M  V30 2077 O  10.9703 47.3825 63.4722 0
M  V30 2078 C  8.1967 46.8955 65.2266 0
M  V30 2079 C  7.9249 45.8617 64.1212 0
M  V30 2080 O  8.7151 44.8984 64.0080 0
M  V30 2081 O  6.8432 45.9658 63.5044 0 CHG=-1
M  V30 2082 N  10.1269 49.3332 64.2878 0
M  V30 2083 C  10.7636 50.2491 63.3369 0 CFG=2
M  V30 2084 C  12.2818 50.3597 63.5594 0
M  V30 2085 O  13.0234 50.3394 62.5794 0
M  V30 2086 C  10.0659 51.6295 63.3803 0
M  V30 2087 C  10.6817 52.7155 62.5073 0
M  V30 2088 C  10.2326 52.8995 61.1832 0
M  V30 2089 C  11.7130 53.5386 63.0107 0
M  V30 2090 C  10.8077 53.8978 60.3722 0
M  V30 2091 C  12.2831 54.5404 62.2041 0
M  V30 2092 C  11.8321 54.7199 60.8827 0
M  V30 2093 O  12.3967 55.6826 60.0981 0
M  V30 2094 N  12.7133 50.4635 64.8304 0
M  V30 2095 C  14.1250 50.5445 65.2225 0 CFG=2
M  V30 2096 C  14.9118 49.2879 64.8264 0
M  V30 2097 O  16.0056 49.4259 64.2857 0
M  V30 2098 C  14.2473 50.8102 66.7378 0
M  V30 2099 C  13.7296 52.1972 67.1737 0
M  V30 2100 C  13.6272 52.2991 68.7094 0
M  V30 2101 C  14.5615 53.3362 66.5557 0
M  V30 2102 N  14.3067 48.1048 65.0335 0
M  V30 2103 C  14.7826 46.8068 64.5564 0 CFG=2
M  V30 2104 C  14.9667 46.7964 63.0298 0
M  V30 2105 O  16.0620 46.4825 62.5723 0
M  V30 2106 C  13.8020 45.7094 65.0332 0
M  V30 2107 C  14.0928 44.2785 64.5212 0
M  V30 2108 C  12.8979 43.3110 64.6260 0
M  V30 2109 N  11.7957 43.6668 63.7076 0
M  V30 2110 C  11.7331 43.4844 62.3741 0
M  V30 2111 N  12.7023 42.8714 61.6820 0
M  V30 2112 N  10.6634 43.9372 61.7112 0 CHG=1
M  V30 2113 N  13.9004 47.1494 62.2890 0
M  V30 2114 C  13.8567 47.1554 60.8251 0 CFG=2
M  V30 2115 C  14.9388 48.0483 60.1874 0
M  V30 2116 O  15.6343 47.5836 59.2879 0
M  V30 2117 C  12.4338 47.5366 60.3635 0
M  V30 2118 O  12.2853 47.4398 58.9602 0
M  V30 2119 N  15.0929 49.2815 60.7000 0
M  V30 2120 C  16.1028 50.2495 60.2636 0 CFG=2
M  V30 2121 C  17.5481 49.8039 60.5770 0
M  V30 2122 O  18.4257 50.0241 59.7448 0
M  V30 2123 C  15.8287 51.6554 60.8809 0
M  V30 2124 C  16.9760 52.6796 60.7530 0
M  V30 2125 C  14.5538 52.2718 60.2785 0
M  V30 2126 N  17.7686 49.1656 61.7398 0
M  V30 2127 C  19.0748 48.6425 62.1558 0 CFG=2
M  V30 2128 C  19.5006 47.3799 61.3889 0
M  V30 2129 O  20.7019 47.1974 61.1966 0
M  V30 2130 C  19.0794 48.4059 63.6795 0
M  V30 2131 C  19.1586 49.7194 64.4847 0
M  V30 2132 C  18.7125 49.5211 65.9434 0
M  V30 2133 C  20.5563 50.3637 64.3762 0
M  V30 2134 N  18.5331 46.5690 60.9223 0
M  V30 2135 C  18.7683 45.4663 59.9862 0 CFG=2
M  V30 2136 C  19.1245 45.9653 58.5759 0
M  V30 2137 O  19.9976 45.3726 57.9446 0
M  V30 2138 C  17.5672 44.5030 59.9478 0
M  V30 2139 C  17.4066 43.6856 61.2489 0
M  V30 2140 C  16.2307 42.6967 61.2691 0
M  V30 2141 O  15.6364 42.4322 60.1996 0
M  V30 2142 O  15.9297 42.2118 62.3825 0 CHG=-1
M  V30 2143 N  18.4953 47.0685 58.1308 0
M  V30 2144 C  18.8269 47.7605 56.8790 0 CFG=2
M  V30 2145 C  20.2339 48.3831 56.9083 0
M  V30 2146 O  20.9363 48.2804 55.9053 0
M  V30 2147 C  17.7764 48.8162 56.4458 0
M  V30 2148 C  16.3333 48.3124 56.2506 0
M  V30 2149 O  16.1431 47.1011 55.9966 0
M  V30 2150 O  15.4362 49.1846 56.2350 0 CHG=-1
M  V30 2151 N  20.6423 48.9619 58.0540 0
M  V30 2152 C  21.9993 49.4748 58.2766 0 CFG=2
M  V30 2153 C  23.0555 48.3557 58.3248 0
M  V30 2154 O  24.1408 48.5374 57.7760 0
M  V30 2155 C  22.0706 50.3196 59.5692 0
M  V30 2156 C  21.2643 51.6102 59.6485 0
M  V30 2157 C  20.7431 52.2534 58.5019 0
M  V30 2158 C  21.1584 52.2630 60.8957 0
M  V30 2159 C  20.0882 53.4715 58.6242 0
M  V30 2160 C  20.5123 53.4872 60.9951 0
M  V30 2161 C  19.9711 54.0842 59.8650 0
M  V30 2162 N  22.7120 47.2196 58.9560 0
M  V30 2163 C  23.5364 46.0136 59.0339 0 CFG=2
M  V30 2164 C  23.8410 45.3833 57.6622 0
M  V30 2165 O  25.0112 45.1767 57.3501 0
M  V30 2166 C  22.9290 45.0321 60.0649 0
M  V30 2167 C  23.3894 43.5844 60.0028 0
M  V30 2168 C  24.7532 43.2628 60.1554 0
M  V30 2169 C  22.4584 42.5459 59.7877 0
M  V30 2170 C  25.1678 41.9397 60.0943 0
M  V30 2171 C  22.8928 41.2282 59.7320 0
M  V30 2172 C  24.2407 40.9269 59.8857 0
M  V30 2173 N  22.7957 45.1302 56.8578 0
M  V30 2174 C  22.9178 44.5654 55.5080 0 CFG=2
M  V30 2175 C  23.5094 45.5498 54.4701 0
M  V30 2176 O  24.0371 45.0821 53.4611 0
M  V30 2177 C  21.5517 44.0555 54.9766 0 CFG=2
M  V30 2178 O  20.6035 45.1007 54.8556 0
M  V30 2179 C  20.9551 42.9250 55.8312 0
M  V30 2180 N  23.4599 46.8677 54.7415 0
M  V30 2181 C  24.1134 47.9051 53.9364 0 CFG=2
M  V30 2182 C  25.6248 48.0419 54.2072 0
M  V30 2183 O  26.3170 48.6344 53.3800 0
M  V30 2184 C  23.4090 49.2491 54.1757 0
M  V30 2185 N  26.1065 47.5014 55.3412 0
M  V30 2186 C  27.5241 47.4922 55.7698 0 CFG=2
M  V30 2187 C  28.2057 46.0650 55.6592 0
M  V30 2188 O  27.5729 45.1622 55.0606 0
M  V30 2189 C  27.7066 48.1807 57.1646 0 CFG=2
M  V30 2190 O  26.9483 47.5236 58.1635 0
M  V30 2191 C  27.3074 49.6664 57.1696 0
M  V30 2192 O  29.3614 45.9945 56.1404 0 CHG=-1
M  V30 2193 H  0.8417 29.7141 90.5307 0
M  V30 2194 H  1.3272 30.2360 92.0224 0
M  V30 2195 H  2.4195 29.5370 90.9905 0
M  V30 2196 H  0.1128 28.2758 92.2236 0
M  V30 2197 H  1.2154 26.0844 91.2713 0
M  V30 2198 H  2.2687 27.0903 90.3397 0
M  V30 2199 H  0.4183 27.9326 89.0077 0
M  V30 2200 H  -0.7644 27.3885 90.1659 0
M  V30 2201 H  -0.8538 25.9115 88.2853 0
M  V30 2202 H  -0.2404 25.0224 89.6498 0
M  V30 2203 H  2.1201 25.2855 88.7462 0
M  V30 2204 H  1.4720 26.1582 87.3690 0
M  V30 2205 H  1.8077 23.9060 86.8449 0
M  V30 2206 H  0.8744 23.3797 88.1029 0
M  V30 2207 H  0.1867 24.1903 86.8356 0
M  V30 2208 H  2.9064 27.3215 95.6877 0
M  V30 2209 H  1.1537 26.1752 96.6925 0
M  V30 2210 H  2.1585 24.7672 96.3907 0
M  V30 2211 H  -0.3323 24.7406 95.4054 0
M  V30 2212 H  0.9946 24.2678 94.3453 0
M  V30 2213 H  -0.0126 25.9924 93.0586 0
M  V30 2214 H  -0.3533 26.9831 94.4731 0
M  V30 2215 H  4.8534 26.2040 96.1840 0
M  V30 2216 H  6.4778 25.7641 94.0161 0
M  V30 2217 H  7.2512 26.5458 96.1903 0
M  V30 2218 H  8.2063 25.2291 95.6194 0
M  V30 2219 H  6.0356 26.2406 98.4737 0
M  V30 2220 H  6.1166 24.4904 100.3384 0
M  V30 2221 H  8.4673 22.4921 95.9577 0
M  V30 2222 H  7.0636 21.7642 100.6785 0
M  V30 2223 H  8.9157 20.3296 97.0605 0
M  V30 2224 H  8.2179 19.9481 99.4175 0
M  V30 2225 H  4.6732 23.2341 95.7739 0
M  V30 2226 H  6.1327 21.0420 94.5907 0
M  V30 2227 H  5.1270 20.7843 96.7609 0
M  V30 2228 H  4.4454 19.6355 95.6575 0
M  V30 2229 H  1.8878 19.9232 94.9839 0
M  V30 2230 H  -0.0860 21.1017 96.0974 0
M  V30 2231 H  4.4831 22.9011 98.2227 0
M  V30 2232 H  -0.4933 23.0743 98.2032 0
M  V30 2233 H  3.2891 24.4264 99.7721 0
M  V30 2234 H  0.8016 24.5167 99.7740 0
M  V30 2235 H  3.7634 23.1315 93.2499 0
M  V30 2236 H  3.0974 21.1812 91.0800 0
M  V30 2237 H  1.2019 22.7203 90.6055 0
M  V30 2238 H  1.6640 23.7286 91.9515 0
M  V30 2239 H  1.1962 21.8985 93.5415 0
M  V30 2240 H  0.8508 20.7919 92.2339 0
M  V30 2241 H  4.8664 24.0690 91.8688 0
M  V30 2242 H  4.6952 25.4380 89.4003 0
M  V30 2243 H  6.7788 25.5709 91.6311 0
M  V30 2244 H  5.3069 26.4749 91.5873 0
M  V30 2245 H  5.6661 25.0843 87.4997 0
M  V30 2246 H  7.2812 22.8617 86.9047 0
M  V30 2247 H  7.5600 24.0042 84.6887 0
M  V30 2248 H  6.8421 25.4428 85.3129 0
M  V30 2249 H  5.3567 22.7642 85.3508 0
M  V30 2250 H  5.4298 23.7294 83.9066 0
M  V30 2251 H  8.1756 26.2154 87.6955 0
M  V30 2252 H  10.9761 25.8513 86.9507 0
M  V30 2253 H  11.1256 28.2021 87.9661 0
M  V30 2254 H  9.4020 28.1365 88.1843 0
M  V30 2255 H  12.1238 28.4146 85.5967 0
M  V30 2256 H  11.2085 29.2045 83.3513 0
M  V30 2257 H  7.1233 28.0005 86.6053 0
M  V30 2258 H  8.5965 29.6482 82.1434 0
M  V30 2259 H  5.4459 28.5997 84.8931 0
M  V30 2260 H  6.1676 29.4411 82.6622 0
M  V30 2261 H  9.1709 25.1455 89.8999 0
M  V30 2262 H  11.3904 25.5884 91.6631 0
M  V30 2263 H  8.9913 23.7694 92.0036 0
M  V30 2264 H  9.0117 25.4469 92.4263 0
M  V30 2265 H  10.8859 23.3358 93.6825 0
M  V30 2266 H  9.3713 23.8057 94.3541 0
M  V30 2267 H  13.1911 24.4266 91.9349 0
M  V30 2268 H  13.2668 21.5755 91.1129 0
M  V30 2269 H  15.6083 21.8545 90.4707 0
M  V30 2270 H  15.2903 22.9995 88.3146 0
M  V30 2271 H  13.9333 21.9557 88.7105 0
M  V30 2272 H  13.7847 23.6984 88.8898 0
M  V30 2273 H  16.6260 24.1084 90.0499 0
M  V30 2274 H  15.3299 24.8388 90.9898 0
M  V30 2275 H  16.4608 23.7249 91.7469 0
M  V30 2276 H  15.1280 21.0109 95.2537 0
M  V30 2277 H  15.8253 18.7500 95.3261 0
M  V30 2278 H  16.8171 18.9108 93.8889 0
M  V30 2279 H  13.8384 18.5247 94.0660 0
M  V30 2280 H  14.9655 17.6819 93.0023 0
M  V30 2281 H  15.2036 19.6713 91.6091 0
M  V30 2282 H  13.4909 19.6960 92.0662 0
M  V30 2283 H  16.9881 21.8542 96.2534 0
M  V30 2284 H  18.7979 23.4796 94.8141 0
M  V30 2285 H  19.0095 22.3654 97.6502 0
M  V30 2286 H  18.0346 23.7353 97.1902 0
M  V30 2287 H  20.0913 25.0303 96.5251 0
M  V30 2288 H  21.0450 23.6205 96.8266 0
M  V30 2289 H  21.1787 25.3049 98.6466 0
M  V30 2290 H  20.8813 23.6752 99.1679 0
M  V30 2291 H  18.8251 24.4090 99.9831 0
M  V30 2292 H  18.6962 28.0793 98.2413 0
M  V30 2293 H  19.9461 26.9692 97.7427 0
M  V30 2294 H  17.1153 27.4284 99.7736 0
M  V30 2295 H  17.2328 25.8855 100.5760 0
M  V30 2296 H  18.9929 20.1077 95.7995 0
M  V30 2297 H  21.7454 19.6201 95.6195 0
M  V30 2298 H  20.9931 17.2266 95.4479 0
M  V30 2299 H  19.3597 17.7433 95.2276 0
M  V30 2300 H  21.0377 18.4357 97.7055 0
M  V30 2301 H  20.0922 16.9819 97.5862 0
M  V30 2302 H  19.4527 20.0802 93.0143 0
M  V30 2303 H  20.9179 18.7181 90.9400 0
M  V30 2304 H  19.5377 20.0051 89.3963 0
M  V30 2305 H  18.4332 21.4516 91.5297 0
M  V30 2306 H  17.2658 19.3732 90.0773 0
M  V30 2307 H  18.3925 18.0852 90.4812 0
M  V30 2308 H  17.7809 19.1475 91.7442 0
M  V30 2309 H  21.3450 21.8222 92.5789 0
M  V30 2310 H  22.9221 22.9795 90.3654 0
M  V30 2311 H  22.7779 25.0292 91.8437 0
M  V30 2312 H  21.8837 24.0960 93.0034 0
M  V30 2313 H  20.1329 23.6672 91.2012 0
M  V30 2314 H  18.9383 25.5842 91.6933 0
M  V30 2315 H  20.0910 25.5162 93.0118 0
M  V30 2316 H  20.3643 26.6299 91.6766 0
M  V30 2317 H  20.1674 25.4054 89.2764 0
M  V30 2318 H  21.8907 25.5757 89.6087 0
M  V30 2319 H  21.2230 24.0227 89.1196 0
M  V30 2320 H  25.0229 23.3860 90.4399 0
M  V30 2321 H  26.6013 23.0553 92.9417 0
M  V30 2322 H  27.2315 21.9811 90.1485 0
M  V30 2323 H  26.8996 21.0129 91.5561 0
M  V30 2324 H  28.9747 21.8036 92.6477 0
M  V30 2325 H  29.3031 22.9118 91.3441 0
M  V30 2326 H  29.4731 21.0015 89.7417 0
M  V30 2327 H  29.2156 19.8850 91.0621 0
M  V30 2328 H  31.2942 20.7233 92.1985 0
M  V30 2329 H  31.5426 21.8844 90.9072 0
M  V30 2330 H  31.7672 20.0681 89.3765 0
M  V30 2331 H  32.8619 19.9483 90.6028 0
M  V30 2332 H  31.5350 18.9707 90.5853 0
M  V30 2333 H  27.0167 25.1879 93.3476 0
M  V30 2334 H  27.5247 27.1574 91.2544 0
M  V30 2335 H  28.0796 28.5532 93.3268 0
M  V30 2336 H  27.5989 27.2105 94.3164 0
M  V30 2337 H  25.8467 28.6414 92.2644 0
M  V30 2338 H  23.9883 27.4517 93.8693 0
M  V30 2339 H  24.6095 26.7166 92.4085 0
M  V30 2340 H  25.2580 26.2487 93.9784 0
M  V30 2341 H  25.2941 30.2103 93.7791 0
M  V30 2342 H  25.0239 29.0433 95.0616 0
M  V30 2343 H  26.6345 29.6552 94.7662 0
M  V30 2344 H  29.4849 27.6057 90.3679 0
M  V30 2345 H  31.8681 26.1646 91.4360 0
M  V30 2346 H  30.9871 26.8521 88.6100 0
M  V30 2347 H  33.0456 25.6602 87.7938 0
M  V30 2348 H  33.4079 27.2009 88.5291 0
M  V30 2349 H  33.6953 25.7098 89.4278 0
M  V30 2350 H  31.1423 24.3556 88.3137 0
M  V30 2351 H  31.4400 24.1987 90.0369 0
M  V30 2352 H  29.9082 24.8472 89.4602 0
M  V30 2353 H  30.9552 29.2399 89.7192 0
M  V30 2354 H  33.3507 30.5474 90.9119 0
M  V30 2355 H  32.5895 30.4146 87.9697 0
M  V30 2356 H  34.0493 29.8147 88.7088 0
M  V30 2357 H  34.7433 32.1704 89.2502 0
M  V30 2358 H  33.2782 32.7854 88.5255 0
M  V30 2359 H  32.8473 32.4265 91.8449 0
M  V30 2360 H  30.1732 33.4989 91.6498 0
M  V30 2361 H  32.6206 34.5176 93.1280 0
M  V30 2362 H  31.4920 33.3431 93.7358 0
M  V30 2363 H  29.6063 35.1006 93.4509 0
M  V30 2364 H  30.8681 36.2217 93.0413 0
M  V30 2365 H  30.9225 34.6919 95.6552 0
M  V30 2366 H  30.0568 36.1995 95.5217 0
M  V30 2367 H  32.7381 36.4617 94.5215 0
M  V30 2368 H  32.5070 36.6808 98.5794 0
M  V30 2369 H  31.1509 36.0243 97.7120 0
M  V30 2370 H  34.3665 37.4383 97.4432 0
M  V30 2371 H  34.4519 37.3331 95.7068 0
M  V30 2372 H  29.4930 34.8284 90.0974 0
M  V30 2373 H  31.3040 36.2732 88.3179 0
M  V30 2374 H  29.1667 36.8762 87.1691 0
M  V30 2375 H  28.2526 36.1675 88.4713 0
M  V30 2376 H  29.1707 33.9419 87.9228 0
M  V30 2377 H  27.4768 33.5590 86.4598 0
M  V30 2378 H  27.1194 35.2643 86.6470 0
M  V30 2379 H  28.0602 34.7240 85.2790 0
M  V30 2380 H  30.2292 34.0935 85.3293 0
M  V30 2381 H  31.0116 35.4257 86.1565 0
M  V30 2382 H  31.1276 33.7954 86.8031 0
M  V30 2383 H  29.2107 37.0036 91.1033 0
M  V30 2384 H  28.6184 39.6660 90.8427 0
M  V30 2385 H  30.3182 39.6939 91.3152 0
M  V30 2386 H  29.5559 40.7588 93.2501 0
M  V30 2387 H  27.9263 39.3137 95.2006 0
M  V30 2388 H  29.6803 39.5283 96.9674 0
M  V30 2389 H  30.2354 38.4780 95.6764 0
M  V30 2390 H  30.8332 40.1281 95.7757 0
M  V30 2391 H  26.7889 40.7348 96.4648 0
M  V30 2392 H  26.1035 43.2006 95.6717 0
M  V30 2393 H  27.5369 43.5867 96.6237 0
M  V30 2394 H  25.3219 44.6564 97.4634 0
M  V30 2395 H  25.0585 44.0139 100.1403 0
M  V30 2396 H  23.3944 45.6830 98.2147 0
M  V30 2397 H  24.7299 46.2157 99.1987 0
M  V30 2398 H  23.3358 45.7837 101.2717 0
M  V30 2399 H  21.9742 45.3709 100.2462 0
M  V30 2400 H  21.5671 48.9260 101.2429 0
M  V30 2401 H  21.6801 47.3974 102.0751 0
M  V30 2402 H  22.9687 42.9974 97.4351 0
M  V30 2403 H  20.9872 41.8601 99.2749 0
M  V30 2404 H  19.5682 41.7258 97.2772 0
M  V30 2405 H  20.8871 42.2437 96.2596 0
M  V30 2406 H  18.8702 43.3191 99.2585 0
M  V30 2407 H  21.2945 44.5916 95.9227 0
M  V30 2408 H  18.3761 45.6761 99.7732 0
M  V30 2409 H  20.7787 46.9363 96.4682 0
M  V30 2410 H  19.3241 47.4765 98.3806 0
M  V30 2411 H  23.7867 40.6424 98.1569 0
M  V30 2412 H  22.7347 37.8500 97.7494 0
M  V30 2413 H  24.1231 38.2638 98.7384 0
M  V30 2414 H  24.2674 36.4889 96.6056 0
M  V30 2415 H  26.3040 37.8372 94.8820 0
M  V30 2416 H  27.5370 35.6940 95.1369 0
M  V30 2417 H  26.2473 35.0410 96.1141 0
M  V30 2418 H  26.7030 36.8453 97.8573 0
M  V30 2419 H  28.0075 37.4354 96.8611 0
M  V30 2420 H  26.7741 36.8285 92.8437 0
M  V30 2421 H  24.7127 34.9506 91.8140 0
M  V30 2422 H  25.9976 37.1721 90.1551 0
M  V30 2423 H  24.2749 36.3911 88.4324 0
M  V30 2424 H  25.5711 35.2563 88.7133 0
M  V30 2425 H  23.9858 34.9905 89.4353 0
M  V30 2426 H  23.5761 38.0322 90.0009 0
M  V30 2427 H  23.2123 36.9813 91.3479 0
M  V30 2428 H  24.3761 38.2788 91.5428 0
M  V30 2429 H  25.4910 33.2322 90.7800 0
M  V30 2430 H  28.4354 32.9333 90.4134 0
M  V30 2431 H  27.9952 30.5551 91.2381 0
M  V30 2432 H  26.3884 31.0368 91.6872 0
M  V30 2433 H  26.4116 33.1472 93.6378 0
M  V30 2434 H  27.8834 33.2981 95.7411 0
M  V30 2435 H  30.1197 29.8921 92.2739 0
M  V30 2436 H  30.3381 32.1364 96.7128 0
M  V30 2437 H  32.0102 29.4276 93.8021 0
M  V30 2438 H  32.1327 30.5439 96.0240 0
M  V30 2439 H  29.1107 31.7297 88.7435 0
M  V30 2440 H  27.2714 30.5763 86.7736 0
M  V30 2441 H  30.3127 30.4572 87.0713 0
M  V30 2442 H  29.4577 31.6169 86.1111 0
M  V30 2443 H  30.1328 30.0573 84.5238 0
M  V30 2444 H  28.4679 29.6299 84.7831 0
M  V30 2445 H  32.1965 27.1352 85.8855 0
M  V30 2446 H  32.1852 28.6953 85.0517 0
M  V30 2447 H  31.8749 28.6126 86.7947 0
M  V30 2448 H  26.5451 28.5035 86.9655 0
M  V30 2449 H  26.3238 26.8764 89.0302 0
M  V30 2450 H  28.0096 26.5247 88.6192 0
M  V30 2451 H  26.3664 24.4562 88.4763 0
M  V30 2452 H  25.5100 24.0806 85.6608 0
M  V30 2453 H  26.4639 21.7568 85.8087 0
M  V30 2454 H  27.2728 22.1886 87.2890 0
M  V30 2455 H  27.0888 22.7394 83.6210 0
M  V30 2456 H  29.2738 23.6131 87.2309 0
M  V30 2457 H  28.9668 23.6248 82.2659 0
M  V30 2458 H  31.1546 24.5133 85.8766 0
M  V30 2459 H  31.9561 24.9235 83.7650 0
M  V30 2460 H  23.5305 23.3559 85.5260 0
M  V30 2461 H  22.0943 22.1427 87.7900 0
M  V30 2462 H  21.2542 23.0671 85.0106 0
M  V30 2463 H  20.9530 23.8814 86.5132 0
M  V30 2464 H  19.3617 22.8622 88.2200 0
M  V30 2465 H  19.8149 21.2712 84.2305 0
M  V30 2466 H  17.2406 21.6137 88.4732 0
M  V30 2467 H  17.6892 20.0267 84.4891 0
M  V30 2468 H  15.8944 19.5568 85.8688 0
M  V30 2469 H  22.1838 20.0264 88.0658 0
M  V30 2470 H  22.5967 17.9084 87.9193 0
M  V30 2471 H  21.6803 16.6237 85.9037 0
M  V30 2472 H  21.3576 18.1505 85.1223 0
M  V30 2473 H  18.1048 17.4248 86.4934 0
M  V30 2474 H  19.1090 17.2701 85.0751 0
M  V30 2475 H  24.7522 19.6364 87.2958 0
M  V30 2476 H  26.7413 17.6881 86.6632 0
M  V30 2477 H  26.9789 19.3751 87.0610 0
M  V30 2478 H  24.9047 19.3502 84.3464 0
M  V30 2479 H  27.1903 19.4148 82.4058 0
M  V30 2480 H  25.5826 18.3508 80.7934 0
M  V30 2481 H  24.4373 18.1437 82.0928 0
M  V30 2482 H  24.4690 15.7955 82.9596 0
M  V30 2483 H  28.3131 16.9728 81.6810 0
M  V30 2484 H  26.0454 13.8423 83.2689 0
M  V30 2485 H  23.9053 20.7328 83.1504 0
M  V30 2486 H  24.0461 22.5092 80.8088 0
M  V30 2487 H  21.9527 22.1403 83.0061 0
M  V30 2488 H  22.1551 20.4347 81.5780 0
M  V30 2489 H  20.4053 23.4264 81.5111 0
M  V30 2490 H  21.6813 24.4587 82.1170 0
M  V30 2491 H  21.7592 23.8482 80.4677 0
M  V30 2492 H  25.3489 24.2642 80.9911 0
M  V30 2493 H  26.1597 25.4135 83.4706 0
M  V30 2494 H  26.4734 26.5477 80.6454 0
M  V30 2495 H  27.4073 25.2151 81.2571 0
M  V30 2496 H  28.2707 26.6133 83.1297 0
M  V30 2497 H  27.4476 28.0038 82.4702 0
M  V30 2498 H  28.7647 27.9149 80.4167 0
M  V30 2499 H  29.4317 26.3554 80.8273 0
M  V30 2500 H  30.6606 27.3604 82.7587 0
M  V30 2501 H  29.9788 28.9330 82.3925 0
M  V30 2502 H  31.0980 28.8339 80.2591 0
M  V30 2503 H  32.1606 28.7002 81.5082 0
M  V30 2504 H  31.7351 27.3648 80.6399 0
M  V30 2505 H  25.2632 27.0138 84.6637 0
M  V30 2506 H  23.0768 28.7123 83.5561 0
M  V30 2507 H  21.8328 28.3034 85.6678 0
M  V30 2508 H  20.7793 26.2386 85.0274 0
M  V30 2509 H  21.2616 27.1189 83.5751 0
M  V30 2510 H  22.1916 25.7286 84.1114 0
M  V30 2511 H  22.2621 26.3812 87.1278 0
M  V30 2512 H  23.7035 25.9583 86.2204 0
M  V30 2513 H  23.6611 27.4392 87.1658 0
M  V30 2514 H  22.5261 30.5468 84.8547 0
M  V30 2515 H  24.6928 31.5779 86.6338 0
M  V30 2516 H  23.6923 33.8181 86.0941 0
M  V30 2517 H  24.3380 33.0138 84.6751 0
M  V30 2518 H  22.6066 33.0402 84.9438 0
M  V30 2519 H  24.1792 31.3949 88.7425 0
M  V30 2520 H  21.3327 31.1814 89.6329 0
M  V30 2521 H  23.9235 30.1740 90.9160 0
M  V30 2522 H  22.4190 28.9613 92.5263 0
M  V30 2523 H  22.3436 30.6947 92.7314 0
M  V30 2524 H  21.0467 29.8551 91.8879 0
M  V30 2525 H  23.0570 27.8913 90.4633 0
M  V30 2526 H  21.7343 28.5821 89.5296 0
M  V30 2527 H  23.3996 28.7847 88.9956 0
M  V30 2528 H  20.6919 33.1681 90.2980 0
M  V30 2529 H  22.4526 34.9419 91.8780 0
M  V30 2530 H  19.7097 35.2416 90.5957 0
M  V30 2531 H  21.2121 35.9731 90.0963 0
M  V30 2532 H  21.2018 37.3104 92.2756 0
M  V30 2533 H  19.6160 36.6698 92.5942 0
M  V30 2534 H  18.7207 37.6359 90.5262 0
M  V30 2535 H  20.3064 38.1902 90.0444 0
M  V30 2536 H  20.3475 39.7038 92.0890 0
M  V30 2537 H  18.7134 39.1852 92.4711 0
M  V30 2538 H  17.9878 40.0713 90.3759 0
M  V30 2539 H  18.7454 41.2329 91.2593 0
M  V30 2540 H  19.5209 40.5307 89.9859 0
M  V30 2541 H  22.4175 34.8877 94.0429 0
M  V30 2542 H  20.2607 33.4007 95.4473 0
M  V30 2543 H  22.5797 32.4278 95.5377 0
M  V30 2544 H  21.9264 32.8509 97.1029 0
M  V30 2545 H  23.7903 34.3671 95.6113 0
M  V30 2546 H  19.2750 34.2413 97.2239 0
M  V30 2547 H  19.5167 37.1329 97.7467 0
M  V30 2548 H  17.5054 34.9978 98.5806 0
M  V30 2549 H  17.2871 36.2020 97.3524 0
M  V30 2550 H  17.4911 36.7024 100.3419 0
M  V30 2551 H  16.8789 39.0908 99.7802 0
M  V30 2552 H  18.5127 38.6573 99.3442 0
M  V30 2553 H  17.2781 38.7542 98.0937 0
M  V30 2554 H  15.0535 37.7202 99.1989 0
M  V30 2555 H  15.2301 36.0569 98.6839 0
M  V30 2556 H  15.2650 36.4538 100.3960 0
M  V30 2557 H  20.6594 37.8519 99.4102 0
M  V30 2558 H  21.6228 36.1977 101.6206 0
M  V30 2559 H  21.7012 39.1816 100.9644 0
M  V30 2560 H  22.9640 38.0168 100.6880 0
M  V30 2561 H  23.1895 37.6798 103.1655 0
M  V30 2562 H  21.9755 38.9096 103.4345 0
M  V30 2563 H  23.3698 40.5855 102.2402 0
M  V30 2564 H  24.5823 39.3741 101.9129 0
M  V30 2565 H  24.9616 39.0913 104.3932 0
M  V30 2566 H  23.7537 40.3258 104.7098 0
M  V30 2567 H  25.1080 41.8803 103.4948 0
M  V30 2568 H  25.9516 41.2146 104.7465 0
M  V30 2569 H  26.2402 40.7191 103.2006 0
M  V30 2570 H  20.3549 35.7164 103.3779 0
M  V30 2571 H  17.6927 36.5734 103.6212 0
M  V30 2572 H  17.8367 35.5178 105.9019 0
M  V30 2573 H  19.5364 35.2676 105.6861 0
M  V30 2574 H  17.6581 34.1773 103.5391 0
M  V30 2575 H  17.6040 33.4389 105.1128 0
M  V30 2576 H  20.1656 31.2399 104.1939 0
M  V30 2577 H  18.5569 31.4706 104.8283 0
M  V30 2578 H  16.7382 38.2954 104.4485 0
M  V30 2579 H  17.8085 39.8124 106.7165 0
M  V30 2580 H  16.2545 39.9789 105.9326 0
M  V30 2581 H  18.6304 40.0582 103.4472 0
M  V30 2582 H  19.3949 42.8332 103.6632 0
M  V30 2583 H  20.7664 41.0466 102.5275 0
M  V30 2584 H  20.5069 42.4898 101.5756 0
M  V30 2585 H  19.2681 39.9748 101.2807 0
M  V30 2586 H  16.7229 41.1137 102.1434 0
M  V30 2587 H  15.1616 43.4602 101.7648 0
M  V30 2588 H  16.5166 43.7141 99.7057 0
M  V30 2589 H  14.8753 43.3374 99.3304 0
M  V30 2590 H  15.5604 40.8979 98.9581 0
M  V30 2591 H  17.2154 41.3806 99.2499 0
M  V30 2592 H  14.6347 42.3820 95.5555 0
M  V30 2593 H  14.1040 41.5515 97.0240 0
M  V30 2594 H  14.3510 43.3015 97.0371 0
M  V30 2595 H  13.0461 42.8054 100.6658 0
M  V30 2596 H  11.8348 40.6966 102.0436 0
M  V30 2597 H  10.9632 42.3762 99.6557 0
M  V30 2598 H  10.6605 42.6976 101.3473 0
M  V30 2599 H  8.8691 41.7555 100.3611 0
M  V30 2600 H  12.7490 37.0705 99.3109 0
M  V30 2601 H  11.4888 35.2870 100.3920 0
M  V30 2602 H  10.1881 36.3733 100.8210 0
M  V30 2603 H  12.9874 36.3743 101.9708 0
M  V30 2604 H  11.4748 36.2550 102.8736 0
M  V30 2605 H  10.9025 38.5495 102.3436 0
M  V30 2606 H  12.6603 38.6539 102.5496 0
M  V30 2607 H  9.5037 38.5705 99.6507 0
M  V30 2608 H  8.3410 37.4858 97.3097 0
M  V30 2609 H  7.6408 39.9717 98.9425 0
M  V30 2610 H  7.0317 38.3790 99.2211 0
M  V30 2611 H  9.9719 40.6357 97.9412 0
M  V30 2612 H  9.6057 41.7143 95.3306 0
M  V30 2613 H  11.2210 43.4252 96.0983 0
M  V30 2614 H  10.0624 43.0819 97.3741 0
M  V30 2615 H  11.6943 42.4158 97.4581 0
M  V30 2616 H  12.0954 39.5917 96.6965 0
M  V30 2617 H  14.0095 39.8671 94.5799 0
M  V30 2618 H  13.5851 37.7430 96.7284 0
M  V30 2619 H  14.6048 39.1422 96.8383 0
M  V30 2620 H  16.7099 39.3303 95.4594 0
M  V30 2621 H  14.3546 35.7159 95.5564 0
M  V30 2622 H  18.6146 38.0403 94.5735 0
M  V30 2623 H  16.2910 34.4667 94.6601 0
M  V30 2624 H  18.3940 35.6128 94.1859 0
M  V30 2625 H  11.4351 37.4420 95.2802 0
M  V30 2626 H  11.8798 35.9663 92.8409 0
M  V30 2627 H  9.7084 34.8011 93.6695 0
M  V30 2628 H  9.7470 35.9019 95.0166 0
M  V30 2629 H  12.0857 35.0407 95.5409 0
M  V30 2630 H  10.9672 32.6083 96.2038 0
M  V30 2631 H  10.7562 34.0965 97.0922 0
M  V30 2632 H  9.5339 33.5907 95.9370 0
M  V30 2633 H  12.0657 32.4673 94.3025 0
M  V30 2634 H  11.7183 33.5993 93.0166 0
M  V30 2635 H  13.1628 33.7989 93.9875 0
M  V30 2636 H  10.0383 38.8538 93.4711 0
M  V30 2637 H  7.9474 38.5622 91.6053 0
M  V30 2638 H  7.8768 41.0707 91.7086 0
M  V30 2639 H  7.9848 40.3454 93.3025 0
M  V30 2640 H  9.4124 41.0718 92.5696 0
M  V30 2641 H  11.3428 39.4323 91.1220 0
M  V30 2642 H  11.2337 40.2527 88.3976 0
M  V30 2643 H  13.4051 39.0879 90.1783 0
M  V30 2644 H  13.0984 40.7718 89.8646 0
M  V30 2645 H  13.6827 40.3879 87.4178 0
M  V30 2646 H  14.1369 38.7491 87.8057 0
M  V30 2647 H  11.8801 37.0593 89.9377 0
M  V30 2648 H  12.2336 35.5813 87.5453 0
M  V30 2649 H  11.8476 33.6009 89.0933 0
M  V30 2650 H  13.0668 34.7340 89.6430 0
M  V30 2651 H  11.4717 34.7300 90.3856 0
M  V30 2652 H  9.2972 36.1780 89.5418 0
M  V30 2653 H  7.5460 34.5242 88.0974 0
M  V30 2654 H  5.7533 35.9972 89.1867 0
M  V30 2655 H  7.0278 37.0330 89.7807 0
M  V30 2656 H  6.7119 35.0743 92.7407 0
M  V30 2657 H  6.4385 36.6178 91.9812 0
M  V30 2658 H  8.6877 37.8140 87.3555 0
M  V30 2659 H  6.7393 38.2843 85.2622 0
M  V30 2660 H  9.3449 39.6842 86.0214 0
M  V30 2661 H  7.7279 40.1014 86.4782 0
M  V30 2662 H  7.2591 40.2911 83.8941 0
M  V30 2663 H  8.0789 42.7125 83.9891 0
M  V30 2664 H  7.0086 42.2027 85.2823 0
M  V30 2665 H  8.7435 42.3144 85.5773 0
M  V30 2666 H  9.7504 41.3964 83.1180 0
M  V30 2667 H  10.1716 39.8586 83.8535 0
M  V30 2668 H  9.0285 39.9117 82.5319 0
M  V30 2669 H  10.0322 36.8789 85.4191 0
M  V30 2670 H  10.3897 36.7038 82.5706 0
M  V30 2671 H  12.3079 35.2565 83.1927 0
M  V30 2672 H  11.8093 35.2839 84.8669 0
M  V30 2673 H  12.0442 37.9029 84.6605 0
M  V30 2674 H  12.8428 37.5837 83.1543 0
M  V30 2675 H  16.1898 35.9453 84.1287 0
M  V30 2676 H  14.7488 35.1787 83.4511 0
M  V30 2677 H  15.2554 36.7789 82.8848 0
M  V30 2678 H  8.4426 34.8303 84.7147 0
M  V30 2679 H  8.2876 32.4267 83.0818 0
M  V30 2680 H  6.2525 31.9882 84.4708 0
M  V30 2681 H  6.3835 33.5690 85.1850 0
M  V30 2682 H  8.6178 32.9251 86.1332 0
M  V30 2683 H  8.4713 31.3508 85.4183 0
M  V30 2684 H  6.5061 30.8637 86.8402 0
M  V30 2685 H  6.5045 32.4950 87.4595 0
M  V30 2686 H  8.7917 32.1117 88.4697 0
M  V30 2687 H  8.7824 30.4712 87.8511 0
M  V30 2688 H  6.8770 31.5774 89.7891 0
M  V30 2689 H  6.8612 30.0273 89.2055 0
M  V30 2690 H  8.1201 30.5459 90.1171 0
M  V30 2691 H  6.9944 35.6771 82.8854 0
M  V30 2692 H  4.8192 34.8967 81.0210 0
M  V30 2693 H  4.0657 37.2135 81.3332 0
M  V30 2694 H  5.4699 37.6134 82.2637 0
M  V30 2695 H  3.4724 37.3054 83.6981 0
M  V30 2696 H  4.7571 36.2138 84.1317 0
M  V30 2697 H  1.4460 34.5914 82.1904 0
M  V30 2698 H  2.0156 36.1762 81.7356 0
M  V30 2699 H  7.8493 36.8371 81.1932 0
M  V30 2700 H  7.7130 37.3947 78.2727 0
M  V30 2701 H  9.7993 38.7688 78.8724 0
M  V30 2702 H  9.4559 38.4558 80.5469 0
M  V30 2703 H  7.2812 39.6396 80.3072 0
M  V30 2704 H  8.4017 41.5034 80.9055 0
M  V30 2705 H  9.8883 40.8293 80.2674 0
M  V30 2706 H  8.8795 41.8412 79.2595 0
M  V30 2707 H  7.2639 41.0985 77.9666 0
M  V30 2708 H  7.9428 39.5988 77.3885 0
M  V30 2709 H  6.3809 39.6045 78.1966 0
M  V30 2710 H  8.1445 35.4402 77.3534 0
M  V30 2711 H  10.8804 34.3093 77.7512 0
M  V30 2712 H  9.8061 32.1260 77.0394 0
M  V30 2713 H  8.2390 32.8602 77.2378 0
M  V30 2714 H  8.7118 33.2450 79.6732 0
M  V30 2715 H  10.3142 32.5763 79.4842 0
M  V30 2716 H  9.1442 29.1479 79.1179 0
M  V30 2717 H  10.3693 30.2373 78.5163 0
M  V30 2718 H  12.0781 34.7307 76.0093 0
M  V30 2719 H  11.1407 34.2143 73.3188 0
M  V30 2720 H  11.9170 37.0629 74.1552 0
M  V30 2721 H  10.2999 36.5351 73.8082 0
M  V30 2722 H  9.6332 35.9768 71.0551 0
M  V30 2723 H  12.9749 38.0847 69.6146 0
M  V30 2724 H  12.9461 34.4268 71.7458 0
M  V30 2725 H  15.3654 33.3103 72.7836 0
M  V30 2726 H  16.0553 33.5706 70.2828 0
M  V30 2727 H  14.4874 34.2576 70.0144 0
M  V30 2728 H  14.4987 31.8785 69.4000 0
M  V30 2729 H  13.3988 32.1338 70.7283 0
M  V30 2730 H  16.9809 30.1306 71.4669 0
M  V30 2731 H  16.9224 31.3535 70.2248 0
M  V30 2732 H  14.4823 36.6362 72.1249 0
M  V30 2733 H  17.3128 37.5255 72.3160 0
M  V30 2734 H  16.4060 39.7105 71.5394 0
M  V30 2735 H  14.7959 39.0614 71.6233 0
M  V30 2736 H  15.1780 38.9887 69.4482 0
M  V30 2737 H  15.5443 37.3381 69.7517 0
M  V30 2738 H  17.3446 39.6891 68.9571 0
M  V30 2739 H  17.1815 38.1369 68.2325 0
M  V30 2740 H  18.9276 38.7164 70.4430 0
M  V30 2741 H  18.5950 34.8877 69.1118 0
M  V30 2742 H  17.4235 36.0622 68.5714 0
M  V30 2743 H  20.3176 35.5458 70.5195 0
M  V30 2744 H  20.4093 37.2027 71.0716 0
M  V30 2745 H  15.3414 36.5103 74.5466 0
M  V30 2746 H  15.9835 38.6619 76.5124 0
M  V30 2747 H  13.9380 37.5216 77.7191 0
M  V30 2748 H  13.4403 36.9903 76.1451 0
M  V30 2749 H  13.9112 39.8789 77.0071 0
M  V30 2750 H  12.2192 40.0536 74.7947 0
M  V30 2751 H  13.9303 40.3950 74.8220 0
M  V30 2752 H  13.3504 38.8179 74.3101 0
M  V30 2753 H  11.1102 39.4321 76.5587 0
M  V30 2754 H  11.6862 38.1487 77.5916 0
M  V30 2755 H  11.9384 39.8241 78.0480 0
M  V30 2756 H  16.9984 37.9087 78.3452 0
M  V30 2757 H  18.1706 35.2869 78.3405 0
M  V30 2758 H  18.0845 37.5180 80.4076 0
M  V30 2759 H  19.9330 36.3231 81.6021 0
M  V30 2760 H  18.4008 35.4947 81.7687 0
M  V30 2761 H  19.6199 34.8883 80.6442 0
M  V30 2762 H  20.5086 37.7389 79.7782 0
M  V30 2763 H  20.2823 36.5158 78.5391 0
M  V30 2764 H  19.4336 38.0548 78.4316 0
M  V30 2765 H  17.2507 33.4655 78.9247 0
M  V30 2766 H  14.5377 33.4575 79.8216 0
M  V30 2767 H  16.5255 31.2520 79.0997 0
M  V30 2768 H  15.5179 32.0884 77.9737 0
M  V30 2769 H  14.5594 30.1350 80.1507 0
M  V30 2770 H  14.6989 29.8761 78.4531 0
M  V30 2771 H  12.8373 32.0152 79.5552 0
M  V30 2772 H  12.3015 30.3854 79.3260 0
M  V30 2773 H  12.9415 32.5110 77.3853 0
M  V30 2774 H  12.1941 28.8354 75.8179 0
M  V30 2775 H  12.4805 28.9666 77.5318 0
M  V30 2776 H  12.2671 30.7166 74.4813 0
M  V30 2777 H  12.5726 32.2837 75.1751 0
M  V30 2778 H  13.6114 32.7171 81.7091 0
M  V30 2779 H  15.2431 32.1133 84.0519 0
M  V30 2780 H  12.2339 32.0509 83.5486 0
M  V30 2781 H  13.1120 33.4199 84.1607 0
M  V30 2782 H  13.0478 30.7650 85.6441 0
M  V30 2783 H  14.4988 31.7245 87.0713 0
M  V30 2784 H  14.5909 33.1553 86.0621 0
M  V30 2785 H  13.4222 33.0768 87.3516 0
M  V30 2786 H  11.3501 32.5370 87.0328 0
M  V30 2787 H  10.8754 32.6786 85.3489 0
M  V30 2788 H  10.8977 31.1156 86.1390 0
M  V30 2789 H  15.9739 30.1225 84.5355 0
M  V30 2790 H  14.9807 27.7531 83.0530 0
M  V30 2791 H  17.0639 26.7661 84.2749 0
M  V30 2792 H  17.5177 28.4095 84.6048 0
M  V30 2793 H  16.3196 29.2164 81.5621 0
M  V30 2794 H  19.1443 26.3839 83.1924 0
M  V30 2795 H  17.5014 29.1503 79.4107 0
M  V30 2796 H  20.3800 26.3931 81.0444 0
M  V30 2797 H  19.3346 28.3803 78.2452 0
M  V30 2798 H  15.4543 28.9636 86.4377 0
M  V30 2799 H  13.3551 27.3005 87.4296 0
M  V30 2800 H  14.8863 25.8917 88.9527 0
M  V30 2801 H  14.9837 25.4638 87.2641 0
M  V30 2802 H  16.2541 26.4327 87.9949 0
M  V30 2803 H  13.3521 27.2768 89.8927 0
M  V30 2804 H  14.7385 29.5082 91.2043 0
M  V30 2805 H  12.6682 30.1490 92.4171 0
M  V30 2806 H  11.6773 31.5979 90.7362 0
M  V30 2807 H  13.4222 31.5476 90.5359 0
M  V30 2808 H  12.3809 30.6496 89.4335 0
M  V30 2809 H  10.4071 29.6035 91.5907 0
M  V30 2810 H  11.0801 28.4882 90.4133 0
M  V30 2811 H  11.2273 28.1565 92.1322 0
M  V30 2812 H  14.7698 29.2520 93.5267 0
M  V30 2813 H  13.7607 26.6896 94.6478 0
M  V30 2814 H  16.4811 27.9203 95.3486 0
M  V30 2815 H  16.7630 25.9158 96.8149 0
M  V30 2816 H  15.4701 26.9589 97.3652 0
M  V30 2817 H  15.0911 25.4686 96.5043 0
M  V30 2818 H  17.5071 25.8317 94.4997 0
M  V30 2819 H  15.9356 25.2830 93.9294 0
M  V30 2820 H  16.6870 26.6981 93.2148 0
M  V30 2821 H  12.0473 27.6087 95.6952 0
M  V30 2822 H  12.1587 30.3064 96.7562 0
M  V30 2823 H  9.7815 29.8980 97.3566 0
M  V30 2824 H  10.0413 27.3580 96.1848 0
M  V30 2825 H  8.8938 29.5329 95.0433 0
M  V30 2826 H  10.1855 30.7207 95.0979 0
M  V30 2827 H  10.5110 29.1150 94.4907 0
M  V30 2828 H  13.3246 27.4942 98.1529 0
M  V30 2829 H  12.6922 28.2273 100.9487 0
M  V30 2830 H  14.1693 26.2614 101.4385 0
M  V30 2831 H  12.8592 25.8290 100.3487 0
M  V30 2832 H  14.4840 26.0641 99.7154 0
M  V30 2833 H  14.1609 29.2400 102.3257 0
M  V30 2834 H  16.1057 30.9742 101.2465 0
M  V30 2835 H  16.5608 31.4335 103.6997 0
M  V30 2836 H  15.3723 30.2134 104.0788 0
M  V30 2837 H  13.6106 31.4858 102.8616 0
M  V30 2838 H  14.7933 32.6457 102.3129 0
M  V30 2839 H  18.1973 31.9784 101.2689 0
M  V30 2840 H  20.4963 31.8872 101.5249 0
M  V30 2841 H  20.4904 31.7965 99.7747 0
M  V30 2842 H  21.7524 29.8551 101.1360 0
M  V30 2843 H  20.6743 29.3897 99.8247 0
M  V30 2844 H  19.6828 28.1327 101.5672 0
M  V30 2845 H  20.0761 29.3443 102.7897 0
M  V30 2846 H  16.8861 32.6455 99.6418 0
M  V30 2847 H  15.8720 30.7722 97.7760 0
M  V30 2848 H  15.4741 33.7599 98.0985 0
M  V30 2849 H  14.6726 31.9685 99.8822 0
M  V30 2850 H  13.4357 31.6146 98.7324 0
M  V30 2851 H  13.4374 33.6075 96.7156 0
M  V30 2852 H  14.8268 33.2266 95.7398 0
M  V30 2853 H  13.7901 31.9377 96.3142 0
M  V30 2854 H  12.5876 33.2263 100.3301 0
M  V30 2855 H  13.9838 34.2773 100.1356 0
M  V30 2856 H  12.8052 34.1278 98.8318 0
M  V30 2857 H  16.3599 30.3580 95.6749 0
M  V30 2858 H  18.4599 32.0141 94.3536 0
M  V30 2859 H  18.8621 29.9696 92.9850 0
M  V30 2860 H  17.6984 29.0961 93.9217 0
M  V30 2861 H  19.7989 31.2661 96.0448 0
M  V30 2862 H  19.6477 27.5093 93.9358 0
M  V30 2863 H  21.6930 30.4442 97.3801 0
M  V30 2864 H  21.5844 26.6938 95.2528 0
M  V30 2865 H  23.1504 27.2088 96.8781 0
M  V30 2866 H  18.2545 32.6293 92.2745 0
M  V30 2867 H  15.8500 31.9029 90.6745 0
M  V30 2868 H  17.3593 34.5681 90.6968 0
M  V30 2869 H  15.6314 34.2739 92.5188 0
M  V30 2870 H  14.4223 34.0699 91.3077 0
M  V30 2871 H  15.7642 35.3038 88.8929 0
M  V30 2872 H  16.7672 33.9902 88.3410 0
M  V30 2873 H  15.1115 33.6731 88.8334 0
M  V30 2874 H  15.1398 36.4915 92.4434 0
M  V30 2875 H  16.0873 36.5628 90.9733 0
M  V30 2876 H  14.3394 36.3695 90.8837 0
M  V30 2877 H  16.5983 30.5436 89.1528 0
M  V30 2878 H  19.4435 30.6623 88.2857 0
M  V30 2879 H  17.4268 28.3831 88.0958 0
M  V30 2880 H  19.4817 29.0888 90.1914 0
M  V30 2881 H  19.3461 27.4243 89.7481 0
M  V30 2882 H  19.3803 26.9786 87.4677 0
M  V30 2883 H  19.1482 28.2413 86.2872 0
M  V30 2884 H  20.4174 28.3999 87.4948 0
M  V30 2885 H  17.9495 27.8742 91.6937 0
M  V30 2886 H  17.0087 29.0631 90.8210 0
M  V30 2887 H  16.9407 27.3662 90.3459 0
M  V30 2888 H  19.8681 31.1975 86.2252 0
M  V30 2889 H  17.6947 31.2766 84.1888 0
M  V30 2890 H  18.3594 33.4777 83.5246 0
M  V30 2891 H  20.0808 34.5856 84.4311 0
M  V30 2892 H  17.9677 34.9615 85.4091 0
M  V30 2893 H  16.8864 33.5768 85.5197 0
M  V30 2894 H  18.3085 33.6793 86.5587 0
M  V30 2895 H  18.6389 31.8412 82.0536 0
M  V30 2896 H  20.5386 30.0257 81.0512 0
M  V30 2897 H  19.3846 32.6588 80.0141 0
M  V30 2898 H  18.6612 31.1003 79.8279 0
M  V30 2899 H  20.7624 30.3861 78.5105 0
M  V30 2900 H  21.2526 32.0614 78.5222 0
M  V30 2901 H  22.7280 30.0696 81.0262 0
M  V30 2902 H  24.2037 32.3891 81.9968 0
M  V30 2903 H  25.1488 29.6803 80.9481 0
M  V30 2904 H  24.7933 30.0520 82.6062 0
M  V30 2905 H  26.1097 31.8965 83.8251 0
M  V30 2906 H  27.3429 30.1451 80.0764 0
M  V30 2907 H  28.4208 32.7140 84.1991 0
M  V30 2908 H  29.6476 30.9298 80.4814 0
M  V30 2909 H  31.0571 32.1339 81.8310 0
M  V30 2910 H  25.3185 33.8303 80.8162 0
M  V30 2911 H  25.3816 33.6381 77.8290 0
M  V30 2912 H  25.1603 36.1276 77.9256 0
M  V30 2913 H  25.0363 36.0703 79.6540 0
M  V30 2914 H  22.8016 36.3215 78.7383 0
M  V30 2915 H  22.9043 34.7745 79.5052 0
M  V30 2916 H  22.6474 35.6104 74.9648 0
M  V30 2917 H  22.4517 36.8054 76.2558 0
M  V30 2918 H  24.0391 36.1166 75.9181 0
M  V30 2919 H  27.4105 33.0207 77.4058 0
M  V30 2920 H  29.4090 32.8302 79.1681 0
M  V30 2921 H  29.6971 32.9993 76.1462 0
M  V30 2922 H  29.1070 31.6094 76.9922 0
M  V30 2923 H  31.9478 32.7592 77.2899 0
M  V30 2924 H  31.5085 31.4274 76.2718 0
M  V30 2925 H  29.2723 35.5137 76.7903 0
M  V30 2926 H  31.8073 36.5659 77.7022 0
M  V30 2927 H  31.1083 38.3482 75.8611 0
M  V30 2928 H  29.8243 37.2473 75.4809 0
M  V30 2929 H  32.0619 35.4313 73.3857 0
M  V30 2930 H  30.4335 35.9683 73.7094 0
M  V30 2931 H  28.8085 36.8120 79.0996 0
M  V30 2932 H  29.5541 38.9296 80.8552 0
M  V30 2933 H  27.9880 38.1305 80.7444 0
M  V30 2934 H  28.4757 41.0024 81.1983 0
M  V30 2935 H  26.4161 41.9400 79.5346 0
M  V30 2936 H  26.8755 42.6641 81.9183 0
M  V30 2937 H  26.4757 43.9330 80.7886 0
M  V30 2938 H  29.0045 43.3408 81.8722 0
M  V30 2939 H  26.3035 43.5891 77.9808 0
M  V30 2940 H  28.2492 43.4874 75.9633 0
M  V30 2941 H  25.8680 45.3204 76.3873 0
M  V30 2942 H  25.8458 43.7902 75.5675 0
M  V30 2943 H  27.3394 46.2722 74.6207 0
M  V30 2944 H  27.4919 45.0077 72.4194 0
M  V30 2945 H  28.4784 44.3304 73.7015 0
M  V30 2946 H  26.9558 43.5620 73.2682 0
M  V30 2947 H  25.1804 45.5443 72.8499 0
M  V30 2948 H  24.5412 45.7424 74.4707 0
M  V30 2949 H  25.4492 47.0419 73.7290 0
M  V30 2950 H  27.6732 46.0189 78.4531 0
M  V30 2951 H  29.4855 47.9227 77.3969 0
M  V30 2952 H  27.7049 48.3304 79.1182 0
M  V30 2953 H  28.0612 48.0143 81.4799 0
M  V30 2954 H  28.2326 46.4519 80.6929 0
M  V30 2955 H  29.6566 47.3338 81.2336 0
M  V30 2956 H  28.8977 50.1159 80.3221 0
M  V30 2957 H  30.4495 49.4411 79.8458 0
M  V30 2958 H  29.3472 50.0821 78.6292 0
M  V30 2959 H  30.0327 45.1281 79.5716 0
M  V30 2960 H  32.8483 45.7408 79.9800 0
M  V30 2961 H  32.9735 43.4901 81.0396 0
M  V30 2962 H  31.3146 43.1755 80.5751 0
M  V30 2963 H  30.9504 43.5120 77.8772 0
M  V30 2964 H  33.1441 42.1209 76.8502 0
M  V30 2965 H  30.3569 42.5022 75.7287 0
M  V30 2966 H  31.0004 41.1609 76.6354 0
M  V30 2967 H  33.0237 39.8474 75.6216 0
M  V30 2968 H  30.5060 42.4691 73.2916 0
M  V30 2969 H  33.8637 38.8345 73.5456 0
M  V30 2970 H  31.3698 41.4170 71.2327 0
M  V30 2971 H  33.0515 39.6217 71.3648 0
M  V30 2972 H  31.6206 45.1019 75.5844 0
M  V30 2973 H  33.1081 45.3837 73.2189 0
M  V30 2974 H  32.5148 47.8723 73.6310 0
M  V30 2975 H  31.7477 47.3474 75.0955 0
M  V30 2976 H  30.3321 45.7849 73.6295 0
M  V30 2977 H  28.6994 47.4557 73.1607 0
M  V30 2978 H  29.5919 48.0772 74.5428 0
M  V30 2979 H  29.9056 48.7121 72.9337 0
M  V30 2980 H  30.4700 47.2318 71.1518 0
M  V30 2981 H  32.0880 46.6668 71.5188 0
M  V30 2982 H  30.7538 45.5252 71.4447 0
M  V30 2983 H  34.1675 45.8907 76.5212 0
M  V30 2984 H  36.4640 47.5709 75.7826 0
M  V30 2985 H  36.8515 47.4965 78.2733 0
M  V30 2986 H  35.4682 46.4545 78.4386 0
M  V30 2987 H  34.0628 48.3363 77.3647 0
M  V30 2988 H  35.4841 49.3387 77.4308 0
M  V30 2989 H  35.5760 49.0735 79.9095 0
M  V30 2990 H  34.2028 47.9936 79.8572 0
M  V30 2991 H  32.7953 49.8632 78.8955 0
M  V30 2992 H  34.1635 50.9505 79.0318 0
M  V30 2993 H  34.1301 50.5650 81.4003 0
M  V30 2994 H  32.6732 51.1295 80.8662 0
M  V30 2995 H  32.8519 49.5337 81.2448 0
M  V30 2996 H  35.8190 44.1597 75.9662 0
M  V30 2997 H  38.4836 43.3277 76.6989 0
M  V30 2998 H  37.8138 41.1066 76.0909 0
M  V30 2999 H  35.4929 42.0290 74.8335 0
M  V30 3000 H  35.7366 40.6969 77.3080 0
M  V30 3001 H  36.7633 41.8400 78.1669 0
M  V30 3002 H  35.3559 42.4114 77.2869 0
M  V30 3003 H  40.6112 43.6426 72.7909 0
M  V30 3004 H  42.3104 41.9756 72.5925 0
M  V30 3005 H  41.1900 40.6673 72.9583 0
M  V30 3006 H  42.3115 42.7112 74.8846 0
M  V30 3007 H  42.3132 40.9571 75.0788 0
M  V30 3008 H  39.9214 40.9361 75.4332 0
M  V30 3009 H  40.4124 42.4164 76.2736 0
M  V30 3010 H  38.3865 40.8232 72.9679 0
M  V30 3011 H  38.0049 40.5281 70.1233 0
M  V30 3012 H  35.9372 39.2026 71.0012 0
M  V30 3013 H  36.5281 39.5347 72.6166 0
M  V30 3014 H  38.4315 38.4494 72.0746 0
M  V30 3015 H  36.3750 42.4152 72.6732 0
M  V30 3016 H  34.5615 43.7819 72.6399 0
M  V30 3017 H  34.0573 43.1206 71.1139 0
M  V30 3018 H  37.2388 44.6560 71.8241 0
M  V30 3019 H  36.6953 47.2352 70.7225 0
M  V30 3020 H  39.2223 45.6755 71.3441 0
M  V30 3021 H  37.6960 46.6605 73.1797 0
M  V30 3022 H  38.2051 48.2276 72.6456 0
M  V30 3023 H  40.5890 47.7580 71.0067 0
M  V30 3024 H  39.9642 47.1470 69.5064 0
M  V30 3025 H  39.1950 48.5372 70.2725 0
M  V30 3026 H  39.5144 47.3642 74.6066 0
M  V30 3027 H  40.0917 46.0126 73.6404 0
M  V30 3028 H  40.5781 47.6631 73.2491 0
M  V30 3029 H  37.8555 44.1759 69.3371 0
M  V30 3030 H  38.5913 45.2213 66.7631 0
M  V30 3031 H  38.6456 42.6845 66.2433 0
M  V30 3032 H  38.1501 42.4302 67.8930 0
M  V30 3033 H  40.2637 43.8270 68.5473 0
M  V30 3034 H  40.7155 43.7451 66.8728 0
M  V30 3035 H  40.8375 41.3108 66.9205 0
M  V30 3036 H  40.1247 41.2381 68.5112 0
M  V30 3037 H  42.1372 42.4582 69.4513 0
M  V30 3038 H  42.8592 42.4667 67.8507 0
M  V30 3039 H  42.8199 40.0735 67.8902 0
M  V30 3040 H  43.6566 40.6700 69.1797 0
M  V30 3041 H  42.1334 40.0734 69.3888 0
M  V30 3042 H  35.4497 44.7310 68.0609 0
M  V30 3043 H  34.1238 43.6176 65.8114 0
M  V30 3044 H  32.0633 44.7091 66.8251 0
M  V30 3045 H  33.0847 45.4962 67.9893 0
M  V30 3046 H  33.7611 43.3086 68.8936 0
M  V30 3047 H  32.0133 43.4904 70.3339 0
M  V30 3048 H  31.2609 44.5938 69.2168 0
M  V30 3049 H  30.8574 42.8971 69.1555 0
M  V30 3050 H  31.8798 41.4312 67.9009 0
M  V30 3051 H  32.5669 42.1837 66.4812 0
M  V30 3052 H  33.6158 41.4349 67.6738 0
M  V30 3053 H  33.7145 44.3778 63.8882 0
M  V30 3054 H  34.1822 47.0709 62.9996 0
M  V30 3055 H  33.1945 46.2528 60.8985 0
M  V30 3056 H  32.4437 44.0526 60.8207 0
M  V30 3057 H  34.6661 44.3765 60.3372 0
M  V30 3058 H  35.5398 45.5339 61.3318 0
M  V30 3059 H  34.9552 44.0308 62.0381 0
M  V30 3060 H  32.5171 48.4899 62.0893 0
M  V30 3061 H  30.3728 49.0049 63.7938 0
M  V30 3062 H  31.5094 50.6504 62.3256 0
M  V30 3063 H  28.5159 50.7375 61.8136 0
M  V30 3064 H  29.6373 52.0570 61.7372 0
M  V30 3065 H  30.9770 50.9458 59.9665 0
M  V30 3066 H  31.6222 49.3312 60.2002 0
M  V30 3067 H  29.8916 49.5679 59.9692 0
M  V30 3068 H  28.7009 52.3805 63.8665 0
M  V30 3069 H  28.5699 50.6636 64.1998 0
M  V30 3070 H  30.1404 51.4652 64.2918 0
M  V30 3071 H  30.4672 46.9175 60.9571 0
M  V30 3072 H  27.7373 46.5889 60.4724 0
M  V30 3073 H  30.2280 44.9045 60.0265 0
M  V30 3074 H  29.3625 45.8613 58.8656 0
M  V30 3075 H  27.0650 43.2362 58.0295 0
M  V30 3076 H  27.3825 44.9417 57.9167 0
M  V30 3077 H  29.9574 44.7743 62.7071 0
M  V30 3078 H  27.8676 43.0877 63.6826 0
M  V30 3079 H  30.6615 43.6206 64.7788 0
M  V30 3080 H  30.2441 42.4201 63.5913 0
M  V30 3081 H  29.3597 42.4150 66.5131 0
M  V30 3082 H  30.5278 41.3707 65.7631 0
M  V30 3083 H  28.7632 40.3819 64.2994 0
M  V30 3084 H  27.5629 41.3920 65.0644 0
M  V30 3085 H  27.9657 40.3493 67.2603 0
M  V30 3086 H  29.2300 39.3362 66.5790 0
M  V30 3087 H  27.1134 38.2248 66.7583 0
M  V30 3088 H  26.4279 39.3078 65.7132 0
M  V30 3089 H  27.6182 38.3053 65.1876 0
M  V30 3090 H  29.0332 46.2801 64.6560 0
M  V30 3091 H  27.7133 46.3584 67.2194 0
M  V30 3092 H  28.0635 48.8530 66.9433 0
M  V30 3093 H  28.6371 48.5722 65.3370 0
M  V30 3094 H  30.5413 47.2513 66.2186 0
M  V30 3095 H  31.7262 49.1479 66.2779 0
M  V30 3096 H  30.2320 50.0648 66.3769 0
M  V30 3097 H  31.0726 49.6102 67.8419 0
M  V30 3098 H  30.9421 47.5700 68.8300 0
M  V30 3099 H  29.1841 47.5842 68.8779 0
M  V30 3100 H  30.0370 46.2090 68.1947 0
M  V30 3101 H  26.7252 47.2386 63.8780 0
M  V30 3102 H  24.1142 48.2204 64.5831 0
M  V30 3103 H  23.7407 47.8592 62.0477 0
M  V30 3104 H  25.3582 47.2333 61.9869 0
M  V30 3105 H  26.1390 49.4937 62.9633 0
M  V30 3106 H  25.3749 50.5419 60.4653 0
M  V30 3107 H  26.7944 49.5783 60.8043 0
M  V30 3108 H  25.3415 48.8065 60.2213 0
M  V30 3109 H  24.0448 51.1996 62.0672 0
M  V30 3110 H  23.2990 49.9997 63.0953 0
M  V30 3111 H  24.6365 50.9597 63.6985 0
M  V30 3112 H  25.4254 44.9953 63.8571 0
M  V30 3113 H  22.9500 43.6202 63.5638 0
M  V30 3114 H  25.6952 42.6072 64.4226 0
M  V30 3115 H  25.1678 42.7407 62.7932 0
M  V30 3116 H  25.1740 44.0570 66.3771 0
M  V30 3117 H  23.5938 42.7495 68.3265 0
M  V30 3118 H  24.9779 44.2837 69.9031 0
M  V30 3119 H  25.7366 44.9133 68.4721 0
M  V30 3120 H  26.5028 42.5489 67.8971 0
M  V30 3121 H  25.7167 41.9815 69.3407 0
M  V30 3122 H  29.0205 41.5710 71.0609 0
M  V30 3123 H  27.3435 41.0466 70.9027 0
M  V30 3124 H  28.4449 40.9264 69.5197 0
M  V30 3125 H  23.5763 46.1674 67.2278 0
M  V30 3126 H  21.6866 47.1644 69.0846 0
M  V30 3127 H  21.4787 49.0169 67.4295 0
M  V30 3128 H  23.1607 48.6150 67.7251 0
M  V30 3129 H  22.3705 48.0820 66.2443 0
M  V30 3130 H  21.2379 45.6270 65.8594 0
M  V30 3131 H  18.4220 45.9852 65.6806 0
M  V30 3132 H  18.6070 44.2322 63.9059 0
M  V30 3133 H  19.8133 45.4910 63.6987 0
M  V30 3134 H  20.2739 43.9320 64.3593 0
M  V30 3135 H  20.4177 43.3439 67.0658 0
M  V30 3136 H  18.2704 41.5585 67.6433 0
M  V30 3137 H  20.0441 40.5864 69.2523 0
M  V30 3138 H  21.1128 41.8419 68.6953 0
M  V30 3139 H  20.8152 40.9740 66.3123 0
M  V30 3140 H  19.8047 39.6969 66.9413 0
M  V30 3141 H  23.5999 38.8175 66.6667 0
M  V30 3142 H  22.6681 39.8756 65.6430 0
M  V30 3143 H  19.7497 44.2129 69.5203 0
M  V30 3144 H  18.3234 43.6543 71.9647 0
M  V30 3145 H  19.7894 46.0815 70.9040 0
M  V30 3146 H  20.9570 43.8185 71.6620 0
M  V30 3147 H  20.6333 44.3779 73.2639 0
M  V30 3148 H  19.7658 47.0303 73.2286 0
M  V30 3149 H  18.1655 47.0197 72.5221 0
M  V30 3150 H  18.6006 45.7994 73.6995 0
M  V30 3151 H  22.9094 44.9661 71.8558 0
M  V30 3152 H  21.9591 46.3770 71.4259 0
M  V30 3153 H  22.3020 46.0234 73.1150 0
M  V30 3154 H  17.7574 45.8215 69.1371 0
M  V30 3155 H  15.3245 46.9647 70.0845 0
M  V30 3156 H  15.0523 47.6380 67.6938 0
M  V30 3157 H  16.6597 48.0010 68.2929 0
M  V30 3158 H  16.4152 46.6078 67.2505 0
M  V30 3159 H  16.0211 43.8757 68.4593 0
M  V30 3160 H  13.3106 43.2226 67.7864 0
M  V30 3161 H  15.8337 41.5541 68.0884 0
M  V30 3162 H  15.2654 42.2905 66.6235 0
M  V30 3163 H  13.3121 40.7977 66.5356 0
M  V30 3164 H  13.6855 40.1135 68.0901 0
M  V30 3165 H  15.3899 42.5596 70.6365 0
M  V30 3166 H  14.9229 41.6198 72.6843 0
M  V30 3167 H  13.5105 40.8251 72.0001 0
M  V30 3168 H  14.1649 44.3724 71.9970 0
M  V30 3169 H  12.1749 44.9562 74.0133 0
M  V30 3170 H  12.5538 47.3245 73.1648 0
M  V30 3171 H  13.7184 46.6732 72.0496 0
M  V30 3172 H  14.7968 47.6019 74.0373 0
M  V30 3173 H  15.1285 45.9043 73.9183 0
M  V30 3174 H  12.0771 47.6301 76.9745 0
M  V30 3175 H  12.7186 48.5363 75.6008 0
M  V30 3176 H  11.5813 47.2065 75.3369 0
M  V30 3177 H  12.0297 44.4471 70.5150 0
M  V30 3178 H  9.4671 45.7133 70.1269 0
M  V30 3179 H  9.4977 44.5436 67.9474 0
M  V30 3180 H  11.0223 45.3528 68.2361 0
M  V30 3181 H  10.9043 43.6090 68.4363 0
M  V30 3182 H  10.5295 42.4650 71.1417 0
M  V30 3183 H  7.8926 41.2944 71.1276 0
M  V30 3184 H  10.5344 40.4844 72.3844 0
M  V30 3185 H  9.7509 39.8215 70.9814 0
M  V30 3186 H  7.5902 38.4749 71.2384 0
M  V30 3187 H  9.9279 39.7320 74.6342 0
M  V30 3188 H  6.4361 36.8332 72.6643 0
M  V30 3189 H  8.7779 38.0514 76.0258 0
M  V30 3190 H  7.0354 36.6140 75.0459 0
M  V30 3191 H  9.9284 42.8134 73.6783 0
M  V30 3192 H  8.1212 42.5655 75.8130 0
M  V30 3193 H  10.4032 44.4329 75.1882 0
M  V30 3194 H  10.6956 41.9411 75.7778 0
M  V30 3195 H  10.1727 42.3413 77.3799 0
M  V30 3196 H  10.4569 45.3124 77.5047 0
M  V30 3197 H  9.0465 45.8659 76.6533 0
M  V30 3198 H  8.9064 44.5603 77.8341 0
M  V30 3199 H  12.7013 42.2404 77.0170 0
M  V30 3200 H  12.5739 43.6847 76.0311 0
M  V30 3201 H  12.1576 43.7459 77.7454 0
M  V30 3202 H  8.4615 45.2029 73.4146 0
M  V30 3203 H  6.4334 46.9329 74.2533 0
M  V30 3204 H  7.6915 46.2541 71.5773 0
M  V30 3205 H  8.0731 47.5760 72.6257 0
M  V30 3206 H  5.7589 48.5672 72.1142 0
M  V30 3207 H  5.5227 47.2908 70.9523 0
M  V30 3208 H  6.2014 44.1452 71.9886 0
M  V30 3209 H  3.4613 44.5027 71.3931 0
M  V30 3210 H  5.4571 42.2722 70.9255 0
M  V30 3211 H  4.9403 43.5069 69.8432 0
M  V30 3212 H  3.7238 41.7997 68.9562 0
M  V30 3213 H  2.5258 42.4667 70.0203 0
M  V30 3214 H  5.0324 42.5333 73.9181 0
M  V30 3215 H  2.5455 41.3117 74.8089 0
M  V30 3216 H  3.9829 40.5373 76.7215 0
M  V30 3217 H  5.3025 41.5024 76.1276 0
M  V30 3218 H  5.4709 39.0271 75.5929 0
M  V30 3219 H  5.6110 40.0847 74.2436 0
M  V30 3220 H  4.2667 38.1180 73.6903 0
M  V30 3221 H  3.4291 39.6138 73.3908 0
M  V30 3222 H  3.0499 38.1320 75.9587 0
M  V30 3223 H  -0.0504 38.5524 73.3493 0
M  V30 3224 H  1.5352 39.0542 72.8360 0
M  V30 3225 H  -0.3704 37.6861 75.4654 0
M  V30 3226 H  0.9656 37.5206 76.5707 0
M  V30 3227 H  3.4149 44.4811 74.9728 0
M  V30 3228 H  2.7901 46.2607 76.0946 0
M  V30 3229 H  0.7437 46.2699 77.4975 0
M  V30 3230 H  0.7358 44.5299 77.5757 0
M  V30 3231 H  -1.6832 44.7980 74.9917 0
M  V30 3232 H  -1.3649 44.4067 76.6625 0
M  V30 3233 H  5.0243 44.7363 77.0683 0
M  V30 3234 H  5.0851 45.5096 79.9423 0
M  V30 3235 H  7.3655 44.2523 79.7502 0
M  V30 3236 H  6.7773 43.6156 78.2475 0
M  V30 3237 H  4.6984 42.1375 78.2972 0
M  V30 3238 H  6.6640 43.4766 81.8860 0
M  V30 3239 H  3.5665 40.3361 79.5800 0
M  V30 3240 H  5.5321 41.6923 83.1735 0
M  V30 3241 H  4.0516 39.9391 83.1148 0
M  V30 3242 H  6.8972 46.6372 80.6861 0
M  V30 3243 H  8.5969 48.0840 78.7342 0
M  V30 3244 H  8.6452 50.0113 80.2033 0
M  V30 3245 H  8.2139 48.8767 82.4307 0
M  V30 3246 H  6.5434 48.7467 82.0036 0
M  V30 3247 H  6.4610 50.9738 79.7237 0
M  V30 3248 H  6.9139 49.9053 78.4098 0
M  V30 3249 H  5.7256 49.3855 79.5964 0
M  V30 3250 H  7.0549 50.7145 83.4726 0
M  V30 3251 H  8.1062 51.3535 82.2060 0
M  V30 3252 H  6.3868 51.2723 81.9425 0
M  V30 3253 H  10.6886 48.6996 79.7739 0
M  V30 3254 H  11.6300 46.5041 81.5536 0
M  V30 3255 H  13.1992 48.1582 79.5288 0
M  V30 3256 H  12.4049 46.6529 79.1506 0
M  V30 3257 H  13.5497 44.2495 80.2091 0
M  V30 3258 H  17.0173 46.1631 81.6271 0
M  V30 3259 H  11.9794 50.0291 80.9515 0
M  V30 3260 H  12.5319 51.7627 82.1267 0
M  V30 3261 H  12.1969 51.8579 84.5656 0
M  V30 3262 H  12.0913 50.1252 84.6613 0
M  V30 3263 H  10.0135 50.0771 83.5294 0
M  V30 3264 H  10.1787 51.6824 82.8740 0
M  V30 3265 H  8.6010 51.9793 84.6741 0
M  V30 3266 H  10.1252 52.5397 85.2847 0
M  V30 3267 H  9.4249 49.7536 85.8592 0
M  V30 3268 H  9.9950 52.4161 88.8630 0
M  V30 3269 H  10.0611 52.9986 87.2188 0
M  V30 3270 H  9.5179 50.2100 89.2997 0
M  V30 3271 H  9.2996 49.0823 87.9907 0
M  V30 3272 H  14.7137 49.2106 82.1358 0
M  V30 3273 H  16.8360 50.9874 83.1418 0
M  V30 3274 H  16.6820 48.0882 84.1029 0
M  V30 3275 H  15.8876 49.3295 84.9879 0
M  V30 3276 H  16.1425 50.5276 80.5252 0
M  V30 3277 H  17.7490 48.4145 79.3934 0
M  V30 3278 H  16.2360 50.7469 78.1548 0
M  V30 3279 H  15.5932 49.1566 78.4343 0
M  V30 3280 H  17.9054 49.7941 76.5539 0
M  V30 3281 H  16.9316 47.2815 75.8115 0
M  V30 3282 H  18.3841 47.5692 76.7547 0
M  V30 3283 H  16.8694 47.1913 77.5599 0
M  V30 3284 H  16.2455 49.2615 74.7509 0
M  V30 3285 H  14.9745 49.3205 75.9778 0
M  V30 3286 H  15.9528 50.7430 75.6474 0
M  V30 3287 H  19.8698 48.4829 79.2343 0
M  V30 3288 H  21.4161 50.6778 78.2180 0
M  V30 3289 H  21.0509 51.5163 80.5280 0
M  V30 3290 H  22.7149 51.1069 80.2568 0
M  V30 3291 H  22.5480 49.0927 81.5487 0
M  V30 3292 H  20.8225 49.1228 81.6451 0
M  V30 3293 H  21.5306 49.9015 83.7849 0
M  V30 3294 H  21.0542 51.3481 82.9288 0
M  V30 3295 H  23.7173 51.1525 82.3260 0
M  V30 3296 H  23.0833 52.5168 86.1106 0
M  V30 3297 H  21.8226 51.6126 85.3134 0
M  V30 3298 H  25.0913 52.9079 85.0086 0
M  V30 3299 H  25.3369 52.3136 83.3896 0
M  V30 3300 H  23.7303 49.9991 78.0488 0
M  V30 3301 H  23.9486 47.3439 77.1362 0
M  V30 3302 H  26.3289 47.9473 76.7297 0
M  V30 3303 H  25.2400 49.2218 76.2051 0
M  V30 3304 H  26.1356 49.3966 77.7107 0
M  V30 3305 H  24.4843 48.5425 80.3910 0
M  V30 3306 H  26.0680 46.3284 81.3492 0
M  V30 3307 H  25.4959 47.2242 83.5645 0
M  V30 3308 H  25.9078 48.5620 82.5023 0
M  V30 3309 H  24.2223 48.2275 82.8875 0
M  V30 3310 H  22.6826 46.7191 80.5910 0
M  V30 3311 H  21.9520 44.1615 81.9303 0
M  V30 3312 H  19.6111 45.1418 81.8814 0
M  V30 3313 H  20.2673 46.6380 81.2688 0
M  V30 3314 H  20.0306 47.4488 84.7694 0
M  V30 3315 H  19.3017 47.6390 83.1977 0
M  V30 3316 H  23.1833 44.8056 79.1612 0
M  V30 3317 H  21.3614 42.9441 77.6871 0
M  V30 3318 H  23.5754 44.7571 76.5945 0
M  V30 3319 H  21.8228 45.9212 75.3078 0
M  V30 3320 H  21.7337 46.1539 77.0127 0
M  V30 3321 H  22.8918 43.9554 74.3325 0
M  V30 3322 H  23.5520 42.6626 75.2928 0
M  V30 3323 H  21.8126 42.7799 75.0739 0
M  V30 3324 H  19.5110 45.7221 75.7464 0
M  V30 3325 H  19.9769 44.0231 75.7580 0
M  V30 3326 H  19.7458 44.8935 77.2715 0
M  V30 3327 H  22.2041 40.8992 77.6112 0
M  V30 3328 H  25.0599 40.4903 78.4024 0
M  V30 3329 H  24.3073 38.2429 79.0803 0
M  V30 3330 H  22.6631 38.6255 78.6254 0
M  V30 3331 H  22.5302 40.3252 80.3861 0
M  V30 3332 H  21.8798 38.7156 81.8439 0
M  V30 3333 H  22.6646 37.5218 80.8271 0
M  V30 3334 H  23.5332 38.2377 82.1629 0
M  V30 3335 H  24.5930 40.1764 82.1525 0
M  V30 3336 H  25.4763 39.9053 80.6641 0
M  V30 3337 H  24.5079 41.3659 80.8735 0
M  V30 3338 H  26.3772 39.2790 77.1903 0
M  V30 3339 H  25.5469 38.7294 74.3872 0
M  V30 3340 H  28.2893 39.3405 75.6049 0
M  V30 3341 H  29.0214 39.7010 73.2257 0
M  V30 3342 H  28.6184 38.0369 73.5523 0
M  V30 3343 H  27.4782 39.0584 72.6769 0
M  V30 3344 H  28.1165 41.5460 74.4558 0
M  V30 3345 H  26.4460 41.1859 74.0311 0
M  V30 3346 H  26.9148 41.3669 75.7182 0
M  V30 3347 H  25.7694 36.6925 73.6028 0
M  V30 3348 H  26.5652 34.5023 75.3507 0
M  V30 3349 H  24.4890 34.5581 73.8381 0
M  V30 3350 H  25.4837 33.1303 73.7125 0
M  V30 3351 H  24.7399 34.3422 71.7242 0
M  V30 3352 H  27.7291 32.6109 74.1247 0
M  V30 3353 H  30.4104 33.2654 73.5370 0
M  V30 3354 H  29.9184 31.1007 74.4462 0
M  V30 3355 H  30.6978 30.9026 72.9134 0
M  V30 3356 H  27.5962 32.8001 71.4384 0
M  V30 3357 H  29.1448 32.9318 68.9501 0
M  V30 3358 H  27.0376 32.6016 67.8383 0
M  V30 3359 H  25.6942 32.8458 70.2983 0
M  V30 3360 H  26.2344 30.4785 68.7352 0
M  V30 3361 H  27.9876 30.5421 68.8635 0
M  V30 3362 H  26.9878 30.7868 70.2912 0
M  V30 3363 H  28.4710 35.2724 71.1051 0
M  V30 3364 H  28.4023 37.4535 71.1477 0
M  V30 3365 H  29.0420 38.7502 68.9828 0
M  V30 3366 H  29.3201 37.2124 68.2455 0
M  V30 3367 H  30.6478 38.3417 70.7499 0
M  V30 3368 H  32.3825 36.3924 70.1868 0
M  V30 3369 H  30.9653 36.0839 71.1655 0
M  V30 3370 H  30.9751 35.6302 69.4640 0
M  V30 3371 H  32.0010 39.4822 69.3614 0
M  V30 3372 H  32.5554 37.9916 68.6191 0
M  V30 3373 H  31.1845 38.8457 67.9523 0
M  V30 3374 H  25.9239 36.0442 70.7993 0
M  V30 3375 H  24.2399 38.0089 69.3746 0
M  V30 3376 H  23.9842 35.4854 69.0215 0
M  V30 3377 H  22.5441 36.4016 69.3508 0
M  V30 3378 H  22.7338 35.7237 71.5612 0
M  V30 3379 H  22.9955 39.4694 70.4143 0
M  V30 3380 H  23.3957 39.8570 73.3014 0
M  V30 3381 H  22.1563 42.0563 72.7598 0
M  V30 3382 H  22.2576 41.6094 71.0673 0
M  V30 3383 H  24.8310 41.3565 70.9892 0
M  V30 3384 H  21.8138 39.8414 74.8459 0
M  V30 3385 H  18.9847 39.5250 74.0717 0
M  V30 3386 H  18.6720 37.8068 75.8223 0
M  V30 3387 H  20.3745 37.7891 76.1834 0
M  V30 3388 H  20.9010 36.8146 74.0101 0
M  V30 3389 H  19.2805 37.0769 73.4312 0
M  V30 3390 H  18.3521 35.4289 74.9223 0
M  V30 3391 H  19.8385 35.2654 75.8176 0
M  V30 3392 H  20.9649 34.1326 73.9927 0
M  V30 3393 H  19.7602 34.6356 72.8271 0
M  V30 3394 H  19.2620 32.7516 75.0092 0
M  V30 3395 H  18.1618 33.2623 73.8936 0
M  V30 3396 H  19.4712 32.3749 73.4204 0
M  V30 3397 H  17.5252 40.4082 75.5223 0
M  V30 3398 H  18.4486 42.5151 77.2680 0
M  V30 3399 H  15.6555 41.2927 77.0279 0
M  V30 3400 H  15.0775 43.0823 75.4188 0
M  V30 3401 H  16.1619 41.8906 74.8015 0
M  V30 3402 H  14.8369 43.5520 77.7463 0
M  V30 3403 H  15.7600 42.7452 78.9889 0
M  V30 3404 H  16.4970 44.0392 78.0533 0
M  V30 3405 H  16.6923 44.3420 74.2303 0
M  V30 3406 H  17.2793 44.5127 75.8758 0
M  V30 3407 H  18.0307 43.3545 74.7681 0
M  V30 3408 H  18.6124 42.5328 79.4993 0
M  V30 3409 H  17.7266 40.1902 81.0970 0
M  V30 3410 H  19.9540 40.0526 82.1144 0
M  V30 3411 H  20.1508 39.9238 80.3726 0
M  V30 3412 H  20.5292 41.4356 81.1872 0
M  V30 3413 H  18.0029 40.6363 83.4420 0
M  V30 3414 H  17.4925 41.6548 85.2919 0
M  V30 3415 H  18.6234 44.2335 84.1266 0
M  V30 3416 H  19.5888 42.9677 84.7912 0
M  V30 3417 H  15.3567 41.2210 85.0648 0
M  V30 3418 H  13.5177 43.2901 84.0032 0
M  V30 3419 H  11.8673 41.4339 84.1237 0
M  V30 3420 H  13.0785 40.3692 84.7786 0
M  V30 3421 H  12.0420 42.2898 81.7443 0
M  V30 3422 H  14.8321 39.4065 83.3335 0
M  V30 3423 H  12.8440 41.7777 79.4723 0
M  V30 3424 H  15.5923 38.9060 81.0456 0
M  V30 3425 H  14.6107 40.0894 79.1298 0
M  V30 3426 H  15.0352 43.4303 86.6686 0
M  V30 3427 H  14.6921 43.9847 88.8344 0
M  V30 3428 H  13.2296 43.0181 88.8287 0
M  V30 3429 H  13.7637 45.8256 86.6364 0
M  V30 3430 H  11.6733 47.3952 88.0824 0
M  V30 3431 H  12.4876 49.2921 86.6991 0
M  V30 3432 H  13.7015 48.2722 85.9734 0
M  V30 3433 H  14.8133 48.0345 88.1658 0
M  V30 3434 H  14.7659 50.9352 88.2984 0
M  V30 3435 H  15.9779 49.8741 87.6061 0
M  V30 3436 H  14.6427 50.4540 86.6253 0
M  V30 3437 H  13.8220 49.8468 89.9732 0
M  V30 3438 H  12.3233 49.3172 89.2335 0
M  V30 3439 H  13.4078 48.1457 89.9725 0
M  V30 3440 H  11.8472 45.1616 85.5345 0
M  V30 3441 H  10.2036 46.4874 83.6259 0
M  V30 3442 H  9.9163 44.1806 82.6852 0
M  V30 3443 H  11.5992 44.5024 83.0751 0
M  V30 3444 H  10.6217 43.4950 84.1403 0
M  V30 3445 H  7.9707 46.5417 83.3295 0
M  V30 3446 H  6.1987 45.2528 85.3420 0
M  V30 3447 H  4.9386 47.4402 85.4873 0
M  V30 3448 H  6.1783 48.2206 84.5556 0
M  V30 3449 H  6.3939 48.7793 86.8407 0
M  V30 3450 H  7.8236 47.8898 86.4429 0
M  V30 3451 H  6.4526 45.8004 87.5293 0
M  V30 3452 H  5.3886 47.0626 88.0683 0
M  V30 3453 H  6.7226 47.8626 89.6058 0
M  V30 3454 H  9.9220 45.4086 89.0619 0
M  V30 3455 H  8.6640 45.3978 87.8531 0
M  V30 3456 H  9.7791 46.7877 90.8855 0
M  V30 3457 H  8.4408 47.9004 91.0647 0
M  V30 3458 H  4.1552 44.7792 84.6194 0
M  V30 3459 H  3.6427 44.8482 81.7373 0
M  V30 3460 H  2.0846 43.7753 84.1303 0
M  V30 3461 H  3.0668 42.8352 83.0557 0
M  V30 3462 H  0.4708 44.2448 82.3460 0
M  V30 3463 H  1.0710 42.4574 80.2176 0
M  V30 3464 H  1.0666 44.2057 80.1793 0
M  V30 3465 H  2.5546 43.3355 80.4989 0
M  V30 3466 H  -0.6314 42.3695 82.8723 0
M  V30 3467 H  0.4858 41.3242 82.0076 0
M  V30 3468 H  0.8279 41.7948 83.6561 0
M  V30 3469 H  2.6246 46.4908 80.7720 0
M  V30 3470 H  1.2551 48.5681 82.3531 0
M  V30 3471 H  2.7201 48.4717 79.7759 0
M  V30 3472 H  2.0786 50.8068 81.5977 0
M  V30 3473 H  3.3119 50.7524 80.3717 0
M  V30 3474 H  1.5947 50.3696 78.6979 0
M  V30 3475 H  0.5479 48.9756 78.7083 0
M  V30 3476 H  0.2894 50.2826 79.8721 0
M  V30 3477 H  4.4709 50.4101 82.4178 0
M  V30 3478 H  3.2958 49.2815 83.0442 0
M  V30 3479 H  4.3579 48.7852 81.7311 0
M  V30 3480 H  -0.7741 48.5778 82.6342 0
M  V30 3481 H  -2.5659 46.7387 81.1958 0
M  V30 3482 H  -4.0620 47.2712 83.1282 0
M  V30 3483 H  -2.8920 48.4122 83.7267 0
M  V30 3484 H  -1.2005 46.4317 83.8792 0
M  V30 3485 H  -2.5181 45.3775 83.4644 0
M  V30 3486 H  -1.8214 50.1477 81.3994 0
M  V30 3487 H  -4.0404 50.8140 79.5394 0
M  V30 3488 H  -4.0951 53.1166 80.4913 0
M  V30 3489 H  -2.9653 52.6413 81.7426 0
M  V30 3490 H  -1.8955 53.3622 80.2170 0
M  V30 3491 H  -0.3426 52.8580 77.7232 0
M  V30 3492 H  -1.0872 55.4220 79.2218 0
M  V30 3493 H  -1.7921 54.8684 77.7256 0
M  V30 3494 H  1.2813 57.3588 77.4871 0
M  V30 3495 H  0.2149 57.1781 78.8503 0
M  V30 3496 H  -0.0716 53.8997 81.1820 0
M  V30 3497 H  2.8570 53.5099 81.0599 0
M  V30 3498 H  2.2602 55.8275 80.3797 0
M  V30 3499 H  3.2660 55.7654 81.7909 0
M  V30 3500 H  1.3203 56.2675 83.2526 0
M  V30 3501 H  0.2340 56.1914 81.8862 0
M  V30 3502 H  3.9145 53.4051 82.9590 0
M  V30 3503 H  2.4058 52.7185 85.4321 0
M  V30 3504 H  5.1847 51.9631 84.3799 0
M  V30 3505 H  3.8638 50.8924 84.7193 0
M  V30 3506 H  6.5640 52.9149 86.1798 0
M  V30 3507 H  3.2998 50.2543 87.0598 0
M  V30 3508 H  7.3733 52.6585 88.4847 0
M  V30 3509 H  4.1475 49.9710 89.3401 0
M  V30 3510 H  2.5323 54.1884 87.0821 0
M  V30 3511 H  4.4608 56.4647 86.8689 0
M  V30 3512 H  1.8662 56.1596 88.4495 0
M  V30 3513 H  1.6508 56.6057 86.2525 0
M  V30 3514 H  2.1933 58.5951 89.0368 0
M  V30 3515 H  3.3800 57.5770 89.8241 0
M  V30 3516 H  3.8344 58.5167 88.4032 0
M  V30 3517 H  6.2408 56.2025 88.0247 0
M  V30 3518 H  6.5638 54.2923 90.1814 0
M  V30 3519 H  8.8818 55.2054 90.1800 0
M  V30 3520 H  8.3731 54.8890 88.5275 0
M  V30 3521 H  8.3882 56.5379 89.1395 0
M  V30 3522 H  7.3147 54.8740 92.3284 0
M  V30 3523 H  5.7951 56.8345 93.7076 0
M  V30 3524 H  7.2394 56.1341 95.6353 0
M  V30 3525 H  6.6648 54.7371 94.7378 0
M  V30 3526 H  8.3226 55.2940 94.5290 0
M  V30 3527 H  6.4483 58.7558 94.7858 0
M  V30 3528 H  8.1294 60.5105 93.3477 0
M  V30 3529 H  7.6967 62.0184 95.4098 0
M  V30 3530 H  6.8884 60.6707 96.1272 0
M  V30 3531 H  5.1524 61.9819 95.2454 0
M  V30 3532 H  5.2572 60.6340 94.1516 0
M  V30 3533 H  8.9778 58.2753 95.8804 0
M  V30 3534 H  10.8528 58.1621 97.2594 0
M  V30 3535 H  11.5235 59.6258 96.5762 0
M  V30 3536 H  10.4245 57.4867 94.0472 0
M  V30 3537 H  12.7021 55.7153 93.9669 0
M  V30 3538 H  11.6641 54.8811 91.9178 0
M  V30 3539 H  10.4149 55.0963 93.1332 0
M  V30 3540 H  10.5842 56.2660 91.8268 0
M  V30 3541 H  14.6388 56.0753 93.0971 0
M  V30 3542 H  15.1172 58.4108 91.2995 0
M  V30 3543 H  17.4462 58.2571 92.1779 0
M  V30 3544 H  16.3004 58.4754 93.4930 0
M  V30 3545 H  16.9952 56.8860 93.1889 0
M  V30 3546 H  16.3247 58.1138 89.4264 0
M  V30 3547 H  16.9608 55.3574 88.5812 0
M  V30 3548 H  15.8919 55.8080 86.3862 0
M  V30 3549 H  15.3859 57.3916 86.9095 0
M  V30 3550 H  13.4143 57.6644 88.3469 0
M  V30 3551 H  14.9210 53.7202 87.4400 0
M  V30 3552 H  11.4380 56.6493 89.3993 0
M  V30 3553 H  12.9296 52.7402 88.5043 0
M  V30 3554 H  11.2031 54.2061 89.4942 0
M  V30 3555 H  20.6689 57.2558 86.9349 0
M  V30 3556 H  21.7230 55.6710 85.5296 0
M  V30 3557 H  20.3329 55.5299 84.4692 0
M  V30 3558 H  20.7058 54.2670 87.1671 0
M  V30 3559 H  20.1237 53.5013 85.6865 0
M  V30 3560 H  18.0024 54.6843 85.8467 0
M  V30 3561 H  18.3808 54.2611 87.5216 0
M  V30 3562 H  20.3882 59.3706 86.3812 0
M  V30 3563 H  18.4381 60.4899 84.8225 0
M  V30 3564 H  21.2019 61.4851 85.5993 0
M  V30 3565 H  20.0859 62.7436 87.3639 0
M  V30 3566 H  19.8193 61.0406 87.5046 0
M  V30 3567 H  20.4534 63.8489 85.2394 0
M  V30 3568 H  20.7017 62.9760 83.7557 0
M  V30 3569 H  19.0646 63.2527 84.3417 0
M  V30 3570 H  17.7923 62.6667 87.8786 0
M  V30 3571 H  17.6841 62.7215 86.1276 0
M  V30 3572 H  17.5181 61.1859 86.9736 0
M  V30 3573 H  21.6910 59.5470 83.6752 0
M  V30 3574 H  21.4735 60.8689 81.1494 0
M  V30 3575 H  23.5058 59.4535 80.6340 0
M  V30 3576 H  23.3314 58.6913 82.1933 0
M  V30 3577 H  23.5531 60.9980 83.2709 0
M  V30 3578 H  23.7654 61.6708 81.6766 0
M  V30 3579 H  25.7418 60.0188 81.4114 0
M  V30 3580 H  25.5901 59.7021 83.1118 0
M  V30 3581 H  26.0536 62.0690 83.6844 0
M  V30 3582 H  26.0508 62.5155 81.9905 0
M  V30 3583 H  28.2342 62.2676 82.7688 0
M  V30 3584 H  27.9777 60.6992 83.2282 0
M  V30 3585 H  27.9218 61.1160 81.6288 0
M  V30 3586 H  20.4397 57.6454 82.2278 0
M  V30 3587 H  19.9554 56.7434 79.4440 0
M  V30 3588 H  19.2672 54.6160 80.6333 0
M  V30 3589 H  19.7891 55.3359 82.1295 0
M  V30 3590 H  20.9949 53.7312 78.9711 0
M  V30 3591 H  23.5146 53.3169 79.0198 0
M  V30 3592 H  22.1654 56.4417 83.1599 0
M  V30 3593 H  25.7834 54.1111 80.6549 0
M  V30 3594 H  24.5157 56.6293 83.9128 0
M  V30 3595 H  26.3330 55.4713 82.6684 0
M  V30 3596 H  18.1460 57.8017 82.3396 0
M  V30 3597 H  15.6173 56.8216 81.3596 0
M  V30 3598 H  16.2531 58.7795 83.6291 0
M  V30 3599 H  17.2333 56.8114 83.9219 0
M  V30 3600 H  14.0951 57.9862 84.6346 0
M  V30 3601 H  13.7938 58.8277 83.1324 0
M  V30 3602 H  13.7436 57.0719 83.1711 0
M  V30 3603 H  13.8445 57.9601 80.5759 0
M  V30 3604 H  14.3784 60.1471 78.8677 0
M  V30 3605 H  12.0300 59.8347 78.2177 0
M  V30 3606 H  12.7567 58.2587 78.4608 0
M  V30 3607 H  11.6917 58.9236 79.6908 0
M  V30 3608 H  13.5121 63.7591 81.2587 0
M  V30 3609 H  12.7901 65.5554 79.8507 0
M  V30 3610 H  11.5319 64.5783 79.1018 0
M  V30 3611 H  14.5130 64.3637 78.6764 0
M  V30 3612 H  13.2680 64.4882 77.4321 0
M  V30 3613 H  12.5296 62.2154 77.8707 0
M  V30 3614 H  14.2757 62.1090 78.1221 0
M  V30 3615 H  10.3654 62.4841 79.9546 0
M  V30 3616 H  8.7654 63.5918 82.0331 0
M  V30 3617 H  7.9852 63.0427 79.7128 0
M  V30 3618 H  6.9616 62.5012 80.9793 0
M  V30 3619 H  6.9216 60.7748 79.4084 0
M  V30 3620 H  7.8414 60.1391 80.7281 0
M  V30 3621 H  10.5757 60.5726 81.7575 0
M  V30 3622 H  9.3323 59.2913 84.0587 0
M  V30 3623 H  11.3074 57.6906 83.6506 0
M  V30 3624 H  10.1283 57.8211 82.3562 0
M  V30 3625 H  11.6729 58.6418 82.2210 0
M  V30 3626 H  12.0215 61.5323 83.5699 0
M  V30 3627 H  13.1214 61.1467 86.2535 0
M  V30 3628 H  13.6113 63.1897 84.0578 0
M  V30 3629 H  14.5225 60.7843 83.9015 0
M  V30 3630 H  15.5770 61.1835 85.2160 0
M  V30 3631 H  15.5355 64.0982 85.3885 0
M  V30 3632 H  14.0151 64.4606 86.1447 0
M  V30 3633 H  15.0117 63.1520 86.7745 0
M  V30 3634 H  16.5999 61.4266 82.9168 0
M  V30 3635 H  15.4736 62.7258 82.5579 0
M  V30 3636 H  16.6892 62.9233 83.8231 0
M  V30 3637 H  11.1012 63.5854 84.5302 0
M  V30 3638 H  10.9530 65.2989 86.8291 0
M  V30 3639 H  9.5071 66.6917 85.2929 0
M  V30 3640 H  9.5656 65.4174 84.1008 0
M  V30 3641 H  12.1309 67.5937 82.8131 0
M  V30 3642 H  10.4342 67.2006 82.7201 0
M  V30 3643 H  8.6508 62.9617 85.3393 0
M  V30 3644 H  6.5894 63.7288 87.3815 0
M  V30 3645 H  4.9108 63.1635 85.7750 0
M  V30 3646 H  6.0458 62.3672 84.7340 0
M  V30 3647 H  6.1384 65.8630 86.2101 0
M  V30 3648 H  5.9606 63.3881 82.6866 0
M  V30 3649 H  6.4137 67.8708 84.7847 0
M  V30 3650 H  6.2454 65.3921 81.2556 0
M  V30 3651 H  6.5352 67.6774 81.2039 0
M  V30 3652 H  8.7178 61.1845 86.4326 0
M  V30 3653 H  7.5522 59.2994 88.3232 0
M  V30 3654 H  8.9702 59.0740 87.3289 0
M  V30 3655 H  6.7928 60.0143 85.0142 0
M  V30 3656 H  5.1629 57.6022 84.8038 0
M  V30 3657 H  4.2533 58.7395 82.7976 0
M  V30 3658 H  6.1298 59.8747 82.1979 0
M  V30 3659 H  3.1605 60.6511 83.9250 0
M  V30 3660 H  3.2211 59.2589 84.9954 0
M  V30 3661 H  4.3402 60.5960 85.2316 0
M  V30 3662 H  5.7741 55.8244 83.7619 0
M  V30 3663 H  7.9173 55.8992 81.6846 0
M  V30 3664 H  8.2388 53.5031 82.3738 0
M  V30 3665 H  7.1873 53.7729 83.7375 0
M  V30 3666 H  7.9585 55.2789 85.6071 0
M  V30 3667 H  10.5180 54.3053 82.2741 0
M  V30 3668 H  9.9377 56.0208 86.8849 0
M  V30 3669 H  12.4775 54.9836 83.6030 0
M  V30 3670 H  12.1877 55.8390 85.8897 0
M  V30 3671 H  7.2139 55.4921 79.7356 0
M  V30 3672 H  5.0058 53.5409 79.1861 0
M  V30 3673 H  4.9179 54.6803 76.9361 0
M  V30 3674 H  6.5883 56.6593 78.0362 0
M  V30 3675 H  3.8907 56.8534 77.5830 0
M  V30 3676 H  3.2819 55.4881 78.4960 0
M  V30 3677 H  4.4223 56.6118 79.2455 0
M  V30 3678 H  5.5490 52.5626 76.8376 0
M  V30 3679 H  8.1305 51.3057 76.8520 0
M  V30 3680 H  6.0751 50.3174 75.8455 0
M  V30 3681 H  8.2831 50.5381 73.7627 0
M  V30 3682 H  7.0433 49.3338 73.8501 0
M  V30 3683 H  5.2089 50.9663 73.6639 0
M  V30 3684 H  5.1094 52.3488 74.7402 0
M  V30 3685 H  6.3716 52.2699 73.5120 0
M  V30 3686 H  8.7758 48.1530 74.8633 0
M  V30 3687 H  9.4907 49.5905 75.5725 0
M  V30 3688 H  8.0620 48.8671 76.3022 0
M  V30 3689 H  6.9282 54.3431 75.5563 0
M  V30 3690 H  9.0662 54.8635 73.7043 0
M  V30 3691 H  8.1260 57.1390 73.6795 0
M  V30 3692 H  7.1636 56.8102 75.0775 0
M  V30 3693 H  5.7600 56.7402 73.1234 0
M  V30 3694 H  5.8052 55.1568 73.8248 0
M  V30 3695 H  7.4050 54.3768 72.1126 0
M  V30 3696 H  7.5619 55.9926 71.4675 0
M  V30 3697 H  5.1345 55.9718 70.8126 0
M  V30 3698 H  4.9630 54.3601 71.4928 0
M  V30 3699 H  6.7242 55.1021 69.2736 0
M  V30 3700 H  6.5773 53.5841 69.9063 0
M  V30 3701 H  5.2909 54.2927 69.1509 0
M  V30 3702 H  8.7595 55.1330 77.2108 0
M  V30 3703 H  10.9329 56.9647 77.6453 0
M  V30 3704 H  10.8232 56.1953 79.9627 0
M  V30 3705 H  9.9151 54.7677 79.5329 0
M  V30 3706 H  9.0608 57.4667 79.2403 0
M  V30 3707 H  10.6139 53.4287 77.2380 0
M  V30 3708 H  13.3911 52.8207 77.6588 0
M  V30 3709 H  12.9237 50.6030 76.8811 0
M  V30 3710 H  11.4214 51.0929 76.1271 0
M  V30 3711 H  11.4502 53.8087 74.8181 0
M  V30 3712 H  13.3903 53.1318 72.8410 0
M  V30 3713 H  11.1532 55.1759 72.8575 0
M  V30 3714 H  11.4231 55.3152 70.3480 0
M  V30 3715 H  12.6530 56.1466 71.2679 0
M  V30 3716 H  13.0102 54.5852 70.5256 0
M  V30 3717 H  9.9743 53.6199 71.4199 0
M  V30 3718 H  11.3820 52.5635 71.3065 0
M  V30 3719 H  10.5149 52.7359 72.8232 0
M  V30 3720 H  12.9539 56.0856 74.8591 0
M  V30 3721 H  15.1306 57.5887 73.7997 0
M  V30 3722 H  13.8598 57.5601 76.5694 0
M  V30 3723 H  13.3864 58.5652 75.2352 0
M  V30 3724 H  16.4811 58.0512 77.4982 0
M  V30 3725 H  17.6627 60.2775 77.8468 0
M  V30 3726 H  13.4825 60.9944 74.5801 0
M  V30 3727 H  17.3713 63.0087 76.9362 0
M  V30 3728 H  13.9220 63.4225 74.3804 0
M  V30 3729 H  15.8724 64.4446 75.5374 0
M  V30 3730 H  14.9712 55.2155 76.5055 0
M  V30 3731 H  17.6858 55.3480 77.2566 0
M  V30 3732 H  17.1745 53.2302 78.4561 0
M  V30 3733 H  15.6947 53.0268 77.5508 0
M  V30 3734 H  16.3345 55.2001 79.2631 0
M  V30 3735 H  16.0990 53.5108 74.6735 0
M  V30 3736 H  18.3488 51.8633 74.0262 0
M  V30 3737 H  15.8479 52.6037 72.4463 0
M  V30 3738 H  16.0961 51.1998 73.4291 0
M  V30 3739 H  17.9930 49.5483 72.8113 0
M  V30 3740 H  16.5434 52.5966 70.1179 0
M  V30 3741 H  19.0621 48.4069 70.8985 0
M  V30 3742 H  17.6056 51.4125 68.2389 0
M  V30 3743 H  18.8633 49.3180 68.6534 0
M  V30 3744 H  17.2793 55.1185 73.0110 0
M  V30 3745 H  18.3408 56.7812 71.8670 0
M  V30 3746 H  19.1146 55.5624 70.8667 0
M  V30 3747 H  19.3865 55.8934 74.4478 0
M  V30 3748 H  22.0561 57.0236 74.4431 0
M  V30 3749 H  20.4436 55.6787 76.6499 0
M  V30 3750 H  19.7721 57.8104 77.4461 0
M  V30 3751 H  19.3212 57.7131 75.7935 0
M  V30 3752 H  21.9699 56.8632 78.2635 0
M  V30 3753 H  22.7793 55.6092 77.3591 0
M  V30 3754 H  23.0085 57.2940 76.9136 0
M  V30 3755 H  20.2061 59.9338 76.2036 0
M  V30 3756 H  21.6925 59.2965 76.8950 0
M  V30 3757 H  21.3694 59.1107 75.1798 0
M  V30 3758 H  20.6589 53.7383 74.6091 0
M  V30 3759 H  23.0416 52.3508 75.2807 0
M  V30 3760 H  20.5577 51.3114 73.8314 0
M  V30 3761 H  20.6452 51.6437 75.5336 0
M  V30 3762 H  22.5570 49.9860 75.6940 0
M  V30 3763 H  21.0450 48.1868 76.0893 0
M  V30 3764 H  20.1124 49.6391 76.3711 0
M  V30 3765 H  19.8999 48.7489 74.8742 0
M  V30 3766 H  21.8691 48.1803 73.6234 0
M  V30 3767 H  22.0806 49.7050 72.7998 0
M  V30 3768 H  23.3783 49.0491 73.8013 0
M  V30 3769 H  21.6996 53.4049 72.1409 0
M  V30 3770 H  23.5138 52.0296 70.4383 0
M  V30 3771 H  22.9191 53.9962 68.8487 0
M  V30 3772 H  21.9736 54.6412 70.1567 0
M  V30 3773 H  20.6328 52.4813 70.1346 0
M  V30 3774 H  19.1665 53.7089 68.9712 0
M  V30 3775 H  20.4486 54.7424 68.3737 0
M  V30 3776 H  19.9635 53.3382 67.4534 0
M  V30 3777 H  21.0735 51.4653 67.5449 0
M  V30 3778 H  22.6767 51.6413 68.2267 0
M  V30 3779 H  21.4566 50.7064 69.0774 0
M  V30 3780 H  23.8927 54.9991 72.3742 0
M  V30 3781 H  26.3576 55.8009 71.1230 0
M  V30 3782 H  26.5597 57.4925 72.6293 0
M  V30 3783 H  24.9332 56.2252 74.5290 0
M  V30 3784 H  24.3955 58.6178 72.8200 0
M  V30 3785 H  24.5204 57.7844 71.2899 0
M  V30 3786 H  23.5523 57.1024 72.5922 0
M  V30 3787 H  25.5272 53.7449 73.9680 0
M  V30 3788 H  28.2172 53.3367 74.8502 0
M  V30 3789 H  27.2544 51.3515 76.0246 0
M  V30 3790 H  25.7468 51.5825 75.1930 0
M  V30 3791 H  25.4662 53.8265 76.2961 0
M  V30 3792 H  27.0083 53.6327 77.0860 0
M  V30 3793 H  26.1660 51.6578 72.4409 0
M  V30 3794 H  27.8731 49.4779 71.9192 0
M  V30 3795 H  25.6167 50.8321 70.4714 0
M  V30 3796 H  25.2742 49.2268 72.3713 0
M  V30 3797 H  26.0059 47.9720 71.4152 0
M  V30 3798 H  25.5984 49.2024 68.6162 0
M  V30 3799 H  27.0056 50.2071 68.5172 0
M  V30 3800 H  27.1438 48.5569 69.1432 0
M  V30 3801 H  23.4014 48.1324 71.4568 0
M  V30 3802 H  23.5774 49.4694 70.3285 0
M  V30 3803 H  24.1622 47.8560 69.9055 0
M  V30 3804 H  27.6570 52.6517 70.2090 0
M  V30 3805 H  29.6510 51.8685 68.2995 0
M  V30 3806 H  27.6253 53.3715 67.9731 0
M  V30 3807 H  27.7754 55.7640 68.2880 0
M  V30 3808 H  28.0324 54.9913 69.8420 0
M  V30 3809 H  29.3971 55.6576 68.9514 0
M  V30 3810 H  28.5792 54.5555 66.1317 0
M  V30 3811 H  30.2102 54.4740 66.8018 0
M  V30 3812 H  29.3983 53.0116 66.2457 0
M  V30 3813 H  29.8705 53.5455 71.3773 0
M  V30 3814 H  32.6093 54.5534 70.8556 0
M  V30 3815 H  32.4049 55.5241 73.1139 0
M  V30 3816 H  29.7509 54.6331 73.2590 0
M  V30 3817 H  30.5778 57.1399 72.7555 0
M  V30 3818 H  31.5526 56.9173 71.3072 0
M  V30 3819 H  29.9632 56.1811 71.4117 0
M  V30 3820 H  31.2738 51.6021 71.7734 0
M  V30 3821 H  31.9741 49.7723 72.6919 0
M  V30 3822 H  34.4527 49.3113 72.9166 0
M  V30 3823 H  34.7811 50.9647 72.5116 0
M  V30 3824 H  34.1372 47.6529 71.0421 0
M  V30 3825 H  33.9274 51.6405 69.6736 0
M  V30 3826 H  34.0829 47.6282 68.5190 0
M  V30 3827 H  30.7276 51.3139 74.4179 0
M  V30 3828 H  31.6404 50.1421 76.9339 0
M  V30 3829 H  30.0850 50.8330 76.5402 0
M  V30 3830 H  31.7098 53.4004 75.5121 0
M  V30 3831 H  32.7203 54.6099 77.9198 0
M  V30 3832 H  31.7487 55.9427 75.3633 0
M  V30 3833 H  33.3250 55.2076 75.5205 0
M  V30 3834 H  33.8797 56.9155 77.3337 0
M  V30 3835 H  32.2643 57.5449 77.1275 0
M  V30 3836 H  32.5852 58.3711 74.9984 0
M  V30 3837 H  34.0153 57.4281 74.6506 0
M  V30 3838 H  34.3737 59.2356 76.8939 0
M  V30 3839 H  35.0244 60.8429 73.1983 0
M  V30 3840 H  34.0975 59.3785 73.3322 0
M  V30 3841 H  35.8197 61.8754 75.1099 0
M  V30 3842 H  35.5621 61.1704 76.6820 0
M  V30 3843 H  31.7467 56.1332 79.2656 0
M  V30 3844 H  29.0336 55.8526 79.8711 0
M  V30 3845 H  31.1500 57.8799 80.6862 0
M  V30 3846 H  31.3988 55.4338 81.3647 0
M  V30 3847 H  29.9240 55.5859 82.2683 0
M  V30 3848 H  29.7089 58.5572 82.6271 0
M  V30 3849 H  29.0304 59.0698 81.1122 0
M  V30 3850 H  28.3658 57.6598 81.9363 0
M  V30 3851 H  32.3124 55.9166 83.4314 0
M  V30 3852 H  32.1545 57.5694 82.8517 0
M  V30 3853 H  30.9464 56.8966 83.9457 0
M  V30 3854 H  27.3756 58.7640 76.7810 0
M  V30 3855 H  25.3830 57.6292 76.9811 0
M  V30 3856 H  24.8125 59.0744 77.8082 0
M  V30 3857 H  24.6151 56.7475 79.0982 0
M  V30 3858 H  25.2985 58.1235 79.9635 0
M  V30 3859 H  27.0318 56.5837 80.2550 0
M  V30 3860 H  26.8317 55.8706 78.6452 0
M  V30 3861 H  26.9082 60.9636 76.5060 0
M  V30 3862 H  27.2717 63.1456 76.7910 0
M  V30 3863 H  26.3752 64.2695 78.7894 0
M  V30 3864 H  26.2124 62.7631 79.6278 0
M  V30 3865 H  24.8727 64.8523 76.8683 0
M  V30 3866 H  24.3311 61.2863 79.2390 0
M  V30 3867 H  22.5366 64.6621 76.0542 0
M  V30 3868 H  22.0019 61.1022 78.4238 0
M  V30 3869 H  20.3723 61.9891 77.0778 0
M  V30 3870 H  31.2969 61.9498 78.8007 0
M  V30 3871 H  32.9230 61.7704 77.0915 0
M  V30 3872 H  32.3891 63.2380 76.2846 0
M  V30 3873 H  31.0428 60.5360 76.2555 0
M  V30 3874 H  31.4263 61.5556 74.8658 0
M  V30 3875 H  29.7107 63.1722 75.5270 0
M  V30 3876 H  28.9605 61.6090 75.8354 0
M  V30 3877 H  32.1528 63.2034 80.3535 0
M  V30 3878 H  33.1431 65.9049 79.8997 0
M  V30 3879 H  33.2548 64.9403 81.3551 0
M  V30 3880 H  29.9939 64.7596 80.7106 0
M  V30 3881 H  29.2792 67.3482 82.0123 0
M  V30 3882 H  27.0381 66.8920 81.1460 0
M  V30 3883 H  27.5405 65.3683 80.4776 0
M  V30 3884 H  29.1527 66.6208 78.9519 0
M  V30 3885 H  28.5244 68.1225 79.5835 0
M  V30 3886 H  24.8679 68.1885 78.1939 0
M  V30 3887 H  25.3886 67.6898 79.8040 0
M  V30 3888 H  26.1315 69.0992 79.0373 0
M  V30 3889 H  28.2146 67.3688 83.9305 0
M  V30 3890 H  27.7773 64.8998 85.4721 0
M  V30 3891 H  27.1971 66.3921 87.2712 0
M  V30 3892 H  27.4118 68.7753 86.6805 0
M  V30 3893 H  29.1878 67.7664 87.5944 0
M  V30 3894 H  29.6347 66.2184 86.8900 0
M  V30 3895 H  29.5972 67.6637 85.8880 0
M  V30 3896 H  25.6004 64.6844 86.6011 0
M  V30 3897 H  23.5479 64.3552 84.7738 0
M  V30 3898 H  22.1295 63.9582 86.8870 0
M  V30 3899 H  23.5182 64.4232 87.8318 0
M  V30 3900 H  23.9762 60.8787 87.9395 0
M  V30 3901 H  23.3497 62.2654 88.7894 0
M  V30 3902 H  21.3488 68.3752 86.2220 0
M  V30 3903 H  21.9228 69.1324 88.2890 0
M  V30 3904 H  22.7965 70.3966 87.4380 0
M  V30 3905 H  24.1683 68.8576 89.1553 0
M  V30 3906 H  24.8561 69.1646 87.5621 0
M  V30 3907 H  24.8715 66.7869 87.6194 0
M  V30 3908 H  23.3199 66.7028 88.4460 0
M  V30 3909 H  24.7119 68.5548 84.9437 0
M  V30 3910 H  24.1781 70.7510 83.1536 0
M  V30 3911 H  26.1923 69.7529 81.8931 0
M  V30 3912 H  26.2902 68.5681 83.1578 0
M  V30 3913 H  26.6216 70.3779 84.8622 0
M  V30 3914 H  26.4315 71.5860 83.6232 0
M  V30 3915 H  23.9299 67.1758 82.8410 0
M  V30 3916 H  23.1400 67.1243 80.1278 0
M  V30 3917 H  22.7700 65.1978 82.4396 0
M  V30 3918 H  22.0570 63.4276 80.8097 0
M  V30 3919 H  20.8215 64.6321 81.0764 0
M  V30 3920 H  21.7906 64.6774 79.6005 0
M  V30 3921 H  24.3995 63.8489 81.1052 0
M  V30 3922 H  24.4725 65.1536 79.9249 0
M  V30 3923 H  25.0529 65.4134 81.5543 0
M  V30 3924 H  21.0945 67.2596 83.1084 0
M  V30 3925 H  18.6014 67.3132 81.7944 0
M  V30 3926 H  19.5335 68.3741 84.4751 0
M  V30 3927 H  19.4510 65.8567 83.9810 0
M  V30 3928 H  17.7282 66.0050 83.8556 0
M  V30 3929 H  17.1306 68.5735 85.1967 0
M  V30 3930 H  17.5478 69.7662 84.0027 0
M  V30 3931 H  16.6255 68.3413 83.5292 0
M  V30 3932 H  18.7881 65.2746 86.1549 0
M  V30 3933 H  19.1472 66.9807 86.3796 0
M  V30 3934 H  17.4777 66.4401 86.1956 0
M  V30 3935 H  20.7779 70.0435 82.7035 0
M  V30 3936 H  19.0644 72.1340 81.8966 0
M  V30 3937 H  21.1573 73.5096 81.9806 0
M  V30 3938 H  20.9820 72.4813 83.3940 0
M  V30 3939 H  22.1161 72.0384 82.1224 0
M  V30 3940 H  21.5750 70.3533 80.0171 0
M  V30 3941 H  21.3253 71.9675 77.6927 0
M  V30 3942 H  22.4921 69.8115 76.6564 0
M  V30 3943 H  22.6161 69.2704 78.3046 0
M  V30 3944 H  25.0529 71.9157 79.1261 0
M  V30 3945 H  23.7621 70.9830 79.8422 0
M  V30 3946 H  19.7217 68.9114 78.7624 0
M  V30 3947 H  18.2963 68.3832 76.3554 0
M  V30 3948 H  16.7955 67.0444 77.9770 0
M  V30 3949 H  17.8297 67.6099 79.2534 0
M  V30 3950 H  19.7981 66.5472 78.0205 0
M  V30 3951 H  19.3908 64.3429 78.8616 0
M  V30 3952 H  18.5301 65.4392 79.9316 0
M  V30 3953 H  17.6429 64.5222 78.7208 0
M  V30 3954 H  18.7700 64.6046 76.3916 0
M  V30 3955 H  17.7420 65.9707 75.9846 0
M  V30 3956 H  19.4959 66.0979 75.8543 0
M  V30 3957 H  17.5239 70.5014 79.1176 0
M  V30 3958 H  14.8669 71.1494 78.2354 0
M  V30 3959 H  15.2596 73.0707 79.9461 0
M  V30 3960 H  16.8169 72.3390 80.2213 0
M  V30 3961 H  15.5666 70.1224 80.7361 0
M  V30 3962 H  14.0850 71.0249 80.6310 0
M  V30 3963 H  18.0265 72.3530 77.2453 0
M  V30 3964 H  16.9574 74.7527 75.9379 0
M  V30 3965 H  19.2905 74.8774 75.0040 0
M  V30 3966 H  19.6886 73.3927 75.8128 0
M  V30 3967 H  19.1267 74.5900 78.0616 0
M  V30 3968 H  18.7970 75.9823 77.1027 0
M  V30 3969 H  21.5018 74.6636 76.8788 0
M  V30 3970 H  21.2037 75.7593 78.2053 0
M  V30 3971 H  20.4254 76.8447 75.6234 0
M  V30 3972 H  24.3412 77.3821 76.5935 0
M  V30 3973 H  23.4213 76.1737 77.4484 0
M  V30 3974 H  23.3200 78.6618 74.9477 0
M  V30 3975 H  21.6488 78.3975 74.5374 0
M  V30 3976 H  16.8007 71.4485 75.1893 0
M  V30 3977 H  16.1436 71.9856 72.3530 0
M  V30 3978 H  15.8286 70.5403 73.2858 0
M  V30 3979 H  19.0689 71.3248 73.9569 0
M  V30 3980 H  20.3469 70.0725 71.6624 0
M  V30 3981 H  22.3460 70.0406 73.1196 0
M  V30 3982 H  21.4049 70.4573 74.5083 0
M  V30 3983 H  21.0682 72.1772 71.1602 0
M  V30 3984 H  22.6653 72.3206 75.1698 0
M  V30 3985 H  21.7868 74.5126 70.7982 0
M  V30 3986 H  23.4194 74.6411 74.7894 0
M  V30 3987 H  23.5885 76.3689 73.2813 0
M  V30 3988 H  21.1927 68.0036 71.5518 0
M  V30 3989 H  20.5471 66.0468 73.7128 0
M  V30 3990 H  20.4240 64.3329 71.9231 0
M  V30 3991 H  20.6845 65.5329 70.6894 0
M  V30 3992 H  18.3464 64.8061 70.8723 0
M  V30 3993 H  18.4574 66.5260 71.1077 0
M  V30 3994 H  18.4074 65.9965 73.6969 0
M  V30 3995 H  18.0933 64.3653 73.2386 0
M  V30 3996 H  16.0281 64.9147 72.2707 0
M  V30 3997 H  15.7094 68.2860 74.5040 0
M  V30 3998 H  17.3071 67.6794 74.1566 0
M  V30 3999 H  13.8422 67.2119 73.6456 0
M  V30 4000 H  14.0344 65.7756 72.6725 0
M  V30 4001 H  22.0948 64.0450 73.2428 0
M  V30 4002 H  24.6459 64.8781 74.0344 0
M  V30 4003 H  23.9552 62.2094 72.7133 0
M  V30 4004 H  23.4664 62.6147 74.3310 0
M  V30 4005 H  25.7431 62.7893 75.1106 0
M  V30 4006 H  26.4014 62.7227 73.4998 0
M  V30 4007 H  24.3085 59.0224 75.3567 0
M  V30 4008 H  24.2254 60.6356 76.0815 0
M  V30 4009 H  23.4242 60.3019 74.5393 0
M  V30 4010 H  26.4395 65.4908 72.9593 0
M  V30 4011 H  26.5277 66.1392 70.2225 0
M  V30 4012 H  28.7305 65.6495 72.2883 0
M  V30 4013 H  30.2447 67.0533 70.8530 0
M  V30 4014 H  29.8957 65.4979 70.1413 0
M  V30 4015 H  29.0736 66.9411 69.5455 0
M  V30 4016 H  28.8138 68.1263 72.4693 0
M  V30 4017 H  27.4732 68.2602 71.3363 0
M  V30 4018 H  27.2342 67.5098 72.9112 0
M  V30 4019 H  27.3892 65.1354 68.4507 0
M  V30 4020 H  27.1833 62.5317 67.8039 0
M  V30 4021 H  28.9511 63.0903 66.0388 0
M  V30 4022 H  29.0998 64.6552 66.7926 0
M  V30 4023 H  26.5419 64.9412 66.3886 0
M  V30 4024 H  26.6118 63.3761 65.6220 0
M  V30 4025 H  28.0749 64.1279 63.8718 0
M  V30 4026 H  28.3185 65.6991 64.5891 0
M  V30 4027 H  26.0815 64.5916 63.0507 0
M  V30 4028 H  25.4745 68.2796 64.6528 0
M  V30 4029 H  26.8252 67.3337 65.2207 0
M  V30 4030 H  24.0836 67.4231 62.9837 0
M  V30 4031 H  24.3936 65.8352 62.3254 0
M  V30 4032 H  30.5186 60.7684 70.3977 0
M  V30 4033 H  29.7798 58.5928 70.8943 0
M  V30 4034 H  29.4284 58.2089 69.2171 0
M  V30 4035 H  27.7737 59.8072 71.1650 0
M  V30 4036 H  27.2095 58.5430 70.0710 0
M  V30 4037 H  27.4478 60.0317 68.1585 0
M  V30 4038 H  26.8778 61.1187 69.4340 0
M  V30 4039 H  32.6062 60.0516 69.8905 0
M  V30 4040 H  33.6229 60.6169 67.3869 0
M  V30 4041 H  35.7710 59.7058 68.1728 0
M  V30 4042 H  34.9679 58.8539 69.4781 0
M  V30 4043 H  33.6695 59.6559 65.5269 0
M  V30 4044 H  33.5624 58.2592 63.8457 0
M  V30 4045 H  34.4851 55.9575 63.9999 0
M  V30 4046 H  34.4391 56.0145 65.7392 0
M  V30 4047 H  37.7548 57.2293 65.7851 0
M  V30 4048 H  36.5173 56.2295 66.5008 0
M  V30 4049 H  31.1346 58.6542 65.5925 0
M  V30 4050 H  29.5196 56.3107 65.1793 0
M  V30 4051 H  28.7142 59.1652 65.8798 0
M  V30 4052 H  29.0354 57.8602 67.0074 0
M  V30 4053 H  26.7081 58.0497 64.6830 0
M  V30 4054 H  28.5825 57.3190 60.7661 0
M  V30 4055 H  27.3417 55.4221 59.9997 0
M  V30 4056 H  26.3271 55.3925 61.4332 0
M  V30 4057 H  29.1786 54.4587 61.1912 0
M  V30 4058 H  27.8129 53.5926 61.9052 0
M  V30 4059 H  27.8096 55.0821 63.8270 0
M  V30 4060 H  29.5388 54.9111 63.4816 0
M  V30 4061 H  27.2101 58.9264 59.9576 0
M  V30 4062 H  25.5722 60.3400 61.7529 0
M  V30 4063 H  25.8337 60.5438 58.7256 0
M  V30 4064 H  26.8264 61.3698 59.8780 0
M  V30 4065 H  23.8274 61.8633 59.4430 0
M  V30 4066 H  25.1256 62.8514 58.8518 0
M  V30 4067 H  24.7325 57.8043 59.4546 0
M  V30 4068 H  21.9066 58.0701 59.4680 0
M  V30 4069 H  21.9739 55.6716 58.7833 0
M  V30 4070 H  23.6650 55.5877 59.1831 0
M  V30 4071 H  24.1455 57.3405 57.4057 0
M  V30 4072 H  22.4474 57.3700 57.0104 0
M  V30 4073 H  24.1635 56.2909 61.6365 0
M  V30 4074 H  22.1014 55.2102 63.3142 0
M  V30 4075 H  25.0751 55.5788 63.8689 0
M  V30 4076 H  24.4169 54.2233 63.0019 0
M  V30 4077 H  23.6763 54.9133 65.8753 0
M  V30 4078 H  23.0890 52.1951 65.4720 0
M  V30 4079 H  21.9429 53.5161 65.5487 0
M  V30 4080 H  22.5392 52.9586 63.9941 0
M  V30 4081 H  25.5208 53.9383 66.6373 0
M  V30 4082 H  25.2575 52.4835 65.6929 0
M  V30 4083 H  26.1406 53.8241 65.0018 0
M  V30 4084 H  24.1531 58.1734 63.4507 0
M  V30 4085 H  23.3409 58.9976 66.0249 0
M  V30 4086 H  24.3550 60.6699 63.6911 0
M  V30 4087 H  25.3438 59.9061 64.9046 0
M  V30 4088 H  24.8888 60.5541 67.4099 0
M  V30 4089 H  23.5756 62.9078 64.0368 0
M  V30 4090 H  24.5857 62.5045 68.8949 0
M  V30 4091 H  23.2943 64.8723 65.5231 0
M  V30 4092 H  23.9609 64.7108 69.0495 0
M  V30 4093 H  21.8839 59.6764 62.8062 0
M  V30 4094 H  19.8431 61.3857 63.8607 0
M  V30 4095 H  18.7653 60.8550 61.5551 0
M  V30 4096 H  20.1661 59.8812 61.2302 0
M  V30 4097 H  20.4422 62.1082 60.2319 0
M  V30 4098 H  21.6452 61.8834 61.4738 0
M  V30 4099 H  20.7976 65.1707 62.4788 0
M  V30 4100 H  21.9788 64.1367 61.7128 0
M  V30 4101 H  20.0620 57.8569 63.5978 0
M  V30 4102 H  17.2986 57.3945 64.2340 0
M  V30 4103 H  19.7089 55.5679 64.5960 0
M  V30 4104 H  18.8410 55.7429 63.1009 0
M  V30 4105 H  17.6012 54.7354 65.6995 0
M  V30 4106 H  15.9043 53.8772 63.6866 0
M  V30 4107 H  15.6675 55.3162 64.6571 0
M  V30 4108 H  16.3993 55.4416 63.0648 0
M  V30 4109 H  17.7559 52.6778 63.6742 0
M  V30 4110 H  19.3548 53.3241 63.9780 0
M  V30 4111 H  18.3942 52.7042 65.3067 0
M  V30 4112 H  20.2064 58.0653 66.2089 0
M  V30 4113 H  18.9859 57.5257 68.7557 0
M  V30 4114 H  20.7181 58.9096 69.7087 0
M  V30 4115 H  21.1792 59.5693 68.1823 0
M  V30 4116 H  21.8010 57.0519 67.5837 0
M  V30 4117 H  21.6765 56.7984 69.3005 0
M  V30 4118 H  25.5717 56.9428 68.6374 0
M  V30 4119 H  24.1987 55.9343 69.0987 0
M  V30 4120 H  24.4087 56.4196 67.4098 0
M  V30 4121 H  19.0374 60.4124 66.5728 0
M  V30 4122 H  17.7195 62.1267 68.4785 0
M  V30 4123 H  17.3963 63.6401 66.5761 0
M  V30 4124 H  18.0288 62.4543 65.4672 0
M  V30 4125 H  20.1937 62.5102 66.5067 0
M  V30 4126 H  19.7024 63.4850 67.8479 0
M  V30 4127 H  20.1161 64.3017 64.9104 0
M  V30 4128 H  20.9209 64.8665 66.3394 0
M  V30 4129 H  19.2875 66.2409 67.0172 0
M  V30 4130 H  16.8823 65.8528 63.7600 0
M  V30 4131 H  18.1841 64.7144 63.9580 0
M  V30 4132 H  16.5585 67.5368 65.2948 0
M  V30 4133 H  17.5977 67.6885 66.6827 0
M  V30 4134 H  16.4862 59.7838 66.1039 0
M  V30 4135 H  13.7282 60.6115 66.2513 0
M  V30 4136 H  13.2829 58.2240 65.5315 0
M  V30 4137 H  14.9786 57.8843 65.6712 0
M  V30 4138 H  15.4349 59.5784 63.8841 0
M  V30 4139 H  15.3862 57.8213 62.4931 0
M  V30 4140 H  14.3109 56.9668 63.5854 0
M  V30 4141 H  13.6442 57.9397 62.2987 0
M  V30 4142 H  13.1797 60.1112 62.4836 0
M  V30 4143 H  12.4930 60.0814 64.0986 0
M  V30 4144 H  13.8167 61.1849 63.7103 0
M  V30 4145 H  15.7676 58.3199 68.1002 0
M  V30 4146 H  13.8103 57.4330 69.9306 0
M  V30 4147 H  15.8633 56.8727 71.3823 0
M  V30 4148 H  16.8629 57.5843 70.1621 0
M  V30 4149 H  16.2585 56.0919 68.2166 0
M  V30 4150 H  15.7742 60.3746 69.8672 0
M  V30 4151 H  14.9953 61.0730 72.6242 0
M  V30 4152 H  16.8005 62.7080 72.4920 0
M  V30 4153 H  17.0777 62.3317 70.8117 0
M  V30 4154 H  16.7461 59.6506 73.5590 0
M  V30 4155 H  19.0058 58.5236 73.9132 0
M  V30 4156 H  19.5791 62.5596 70.4379 0
M  V30 4157 H  21.7497 58.8532 72.9482 0
M  V30 4158 H  22.0114 62.1545 70.1995 0
M  V30 4159 H  23.1011 60.2989 71.4446 0
M  V30 4160 H  13.0243 61.3847 70.2547 0
M  V30 4161 H  12.7302 64.2263 69.9274 0
M  V30 4162 H  10.3351 63.5417 69.2891 0
M  V30 4163 H  10.8213 61.8829 69.5183 0
M  V30 4164 H  12.5966 62.1822 67.7852 0
M  V30 4165 H  12.2549 63.8877 67.6884 0
M  V30 4166 H  9.9315 63.3618 66.8751 0
M  V30 4167 H  10.3056 61.6613 66.9641 0
M  V30 4168 H  10.5436 62.2794 64.6567 0
M  V30 4169 H  12.1657 62.0254 65.2716 0
M  V30 4170 H  12.3829 64.3927 65.5093 0
M  V30 4171 H  12.0054 63.9904 63.9547 0
M  V30 4172 H  10.8507 64.6265 64.9457 0
M  V30 4173 H  11.2635 65.6919 70.8681 0
M  V30 4174 H  11.3623 65.6521 73.6465 0
M  V30 4175 H  9.7610 67.4153 71.7458 0
M  V30 4176 H  11.3993 67.6834 72.2256 0
M  V30 4177 H  8.9610 67.8085 74.0901 0
M  V30 4178 H  9.7820 69.1699 73.3954 0
M  V30 4179 H  8.4312 65.2904 71.5834 0
M  V30 4180 H  6.7202 64.5391 73.8004 0
M  V30 4181 H  5.1128 64.0728 71.9584 0
M  V30 4182 H  6.3375 64.4514 70.7855 0
M  V30 4183 H  6.4016 66.8409 71.5820 0
M  V30 4184 H  5.4781 66.3551 72.9650 0
M  V30 4185 H  4.1648 67.6077 71.2809 0
M  V30 4186 H  3.4250 66.1361 71.8342 0
M  V30 4187 H  5.0814 66.0982 69.3439 0
M  V30 4188 H  1.0331 65.9175 69.0084 0
M  V30 4189 H  1.7400 66.0691 70.5951 0
M  V30 4190 H  2.3931 65.7761 67.1500 0
M  V30 4191 H  4.1268 65.8040 67.3321 0
M  V30 4192 H  8.1412 60.1981 73.7232 0
M  V30 4193 H  6.9010 59.0916 75.4389 0
M  V30 4194 H  5.3895 59.8567 74.9550 0
M  V30 4195 H  7.7439 61.1355 76.3437 0
M  V30 4196 H  6.0573 61.2019 76.8553 0
M  V30 4197 H  5.5182 62.7002 75.0142 0
M  V30 4198 H  7.1521 63.2203 75.4663 0
M  V30 4199 H  4.8058 61.0241 72.6156 0
M  V30 4200 H  4.3172 58.6647 71.1772 0
M  V30 4201 H  2.4854 60.0115 71.8748 0
M  V30 4202 H  2.4759 59.9445 70.1583 0
M  V30 4203 H  2.1375 62.1560 70.1989 0
M  V30 4204 H  3.8499 62.3141 70.4153 0
M  V30 4205 H  6.2195 61.4741 70.1862 0
M  V30 4206 H  6.1251 60.8298 67.3543 0
M  V30 4207 H  7.8290 62.5580 67.0554 0
M  V30 4208 H  8.0472 62.7053 68.7951 0
M  V30 4209 H  8.0260 59.6853 70.0403 0
M  V30 4210 H  10.3560 58.9218 68.6129 0
M  V30 4211 H  10.7773 57.4843 70.5973 0
M  V30 4212 H  9.1447 57.7108 71.1405 0
M  V30 4213 H  9.7111 60.2686 71.3088 0
M  V30 4214 H  11.3376 59.7733 70.9183 0
M  V30 4215 H  11.6386 58.5524 72.9271 0
M  V30 4216 H  9.9343 58.4397 73.2629 0
M  V30 4217 H  11.1108 61.1514 73.1017 0
M  V30 4218 H  10.2252 59.6027 76.7466 0
M  V30 4219 H  10.4319 58.5055 75.4014 0
M  V30 4220 H  10.5630 61.8597 76.4560 0
M  V30 4221 H  10.9083 62.5172 74.8716 0
M  V30 4222 H  8.6369 55.5372 66.2938 0
M  V30 4223 H  10.6077 55.6483 65.0565 0
M  V30 4224 H  10.8854 54.0489 65.7370 0
M  V30 4225 H  12.7747 55.9048 66.1381 0
M  V30 4226 H  12.2350 54.9437 67.5159 0
M  V30 4227 H  11.8338 57.0910 68.3833 0
M  V30 4228 H  11.3521 57.7517 66.8072 0
M  V30 4229 H  8.0764 53.3051 66.3153 0
M  V30 4230 H  8.0123 51.9006 68.8347 0
M  V30 4231 H  7.0922 50.0483 67.4991 0
M  V30 4232 H  7.4312 51.4923 65.1304 0
M  V30 4233 H  5.1112 51.0862 66.4908 0
M  V30 4234 H  5.4956 51.8679 68.0162 0
M  V30 4235 H  5.8831 52.6675 66.4928 0
M  V30 4236 H  9.1157 49.8949 69.3344 0
M  V30 4237 H  11.8574 49.7231 68.5537 0
M  V30 4238 H  11.5514 47.3726 69.7286 0
M  V30 4239 H  9.9963 47.9869 70.1941 0
M  V30 4240 H  13.6517 48.8202 70.1852 0
M  V30 4241 H  9.8476 49.3984 72.1467 0
M  V30 4242 H  14.7749 49.8913 72.0834 0
M  V30 4243 H  11.0086 50.4876 74.0217 0
M  V30 4244 H  13.4703 50.6877 74.0126 0
M  V30 4245 H  8.9750 48.3205 67.1505 0
M  V30 4246 H  10.2455 46.2948 65.6175 0
M  V30 4247 H  7.6560 47.8197 65.0113 0
M  V30 4248 H  7.7435 46.5199 66.1456 0
M  V30 4249 H  9.5608 49.7624 65.0076 0
M  V30 4250 H  10.6096 49.8380 62.3373 0
M  V30 4251 H  10.0507 52.0071 64.4018 0
M  V30 4252 H  9.0188 51.5121 63.0986 0
M  V30 4253 H  9.4493 52.2718 60.7837 0
M  V30 4254 H  12.0886 53.3900 64.0113 0
M  V30 4255 H  10.4601 54.0271 59.3577 0
M  V30 4256 H  13.0773 55.1580 62.5956 0
M  V30 4257 H  12.0317 55.7075 59.2106 0
M  V30 4258 H  12.0379 50.4844 65.5829 0
M  V30 4259 H  14.5687 51.3798 64.6779 0
M  V30 4260 H  15.2891 50.7136 67.0495 0
M  V30 4261 H  13.7104 50.0281 67.2738 0
M  V30 4262 H  12.7164 52.3178 66.7955 0
M  V30 4263 H  14.2782 53.0673 69.1224 0
M  V30 4264 H  12.6069 52.5371 69.0132 0
M  V30 4265 H  13.8982 51.3649 69.2016 0
M  V30 4266 H  14.6648 54.1891 67.2221 0
M  V30 4267 H  15.5655 53.0077 66.2855 0
M  V30 4268 H  14.0813 53.7051 65.6493 0
M  V30 4269 H  13.4098 48.0922 65.5022 0
M  V30 4270 H  15.7583 46.6162 65.0057 0
M  V30 4271 H  12.7974 45.9985 64.7289 0
M  V30 4272 H  13.7776 45.6940 66.1228 0
M  V30 4273 H  14.9865 43.8564 64.9793 0
M  V30 4274 H  14.3375 44.3331 63.4631 0
M  V30 4275 H  12.4607 43.4155 65.6185 0
M  V30 4276 H  13.2071 42.2692 64.5387 0
M  V30 4277 H  11.0117 44.1436 64.1372 0
M  V30 4278 H  12.6412 42.7636 60.6804 0
M  V30 4279 H  13.5411 42.5477 62.1495 0
M  V30 4280 H  10.5887 43.8324 60.7104 0
M  V30 4281 H  9.9097 44.3820 62.2252 0
M  V30 4282 H  13.0381 47.3969 62.7558 0
M  V30 4283 H  14.0488 46.1291 60.5048 0
M  V30 4284 H  12.1806 48.5506 60.6739 0
M  V30 4285 H  11.7001 46.8741 60.8236 0
M  V30 4286 H  12.8761 48.0701 58.5388 0
M  V30 4287 H  14.4815 49.5875 61.4463 0
M  V30 4288 H  16.0225 50.3328 59.1776 0
M  V30 4289 H  15.6456 51.5216 61.9489 0
M  V30 4290 H  16.6766 53.6578 61.1298 0
M  V30 4291 H  17.8570 52.3854 61.3223 0
M  V30 4292 H  17.2740 52.8053 59.7118 0
M  V30 4293 H  14.3305 53.2312 60.7428 0
M  V30 4294 H  14.6670 52.4432 59.2076 0
M  V30 4295 H  13.6824 51.6331 60.4166 0
M  V30 4296 H  17.0026 49.0162 62.3831 0
M  V30 4297 H  19.8234 49.4021 61.9245 0
M  V30 4298 H  19.9215 47.7767 63.9711 0
M  V30 4299 H  18.1846 47.8426 63.9477 0
M  V30 4300 H  18.4487 50.4182 64.0440 0
M  V30 4301 H  17.8505 50.1477 66.1718 0
M  V30 4302 H  18.4237 48.4914 66.1530 0
M  V30 4303 H  19.4937 49.7877 66.6491 0
M  V30 4304 H  20.9821 50.6426 65.3382 0
M  V30 4305 H  21.2673 49.6890 63.9026 0
M  V30 4306 H  20.5168 51.2686 63.7722 0
M  V30 4307 H  17.5666 46.7595 61.1527 0
M  V30 4308 H  19.6236 44.8962 60.3510 0
M  V30 4309 H  17.6758 43.8244 59.0995 0
M  V30 4310 H  16.6531 45.0705 59.7661 0
M  V30 4311 H  17.2961 44.3624 62.0921 0
M  V30 4312 H  18.3203 43.1187 61.4328 0
M  V30 4313 H  17.7605 47.4834 58.6879 0
M  V30 4314 H  18.8529 46.9969 56.0990 0
M  V30 4315 H  18.0864 49.2682 55.5022 0
M  V30 4316 H  17.7503 49.6197 57.1836 0
M  V30 4317 H  19.9954 49.0465 58.8273 0
M  V30 4318 H  22.2662 50.1120 57.4319 0
M  V30 4319 H  23.1091 50.6058 59.7362 0
M  V30 4320 H  21.7956 49.7022 60.4257 0
M  V30 4321 H  20.8368 51.8130 57.5209 0
M  V30 4322 H  21.5901 51.8141 61.7774 0
M  V30 4323 H  19.6838 53.9531 57.7458 0
M  V30 4324 H  20.4341 53.9811 61.9518 0
M  V30 4325 H  19.4709 55.0378 59.9492 0
M  V30 4326 H  21.8060 47.1608 59.4019 0
M  V30 4327 H  24.5027 46.3220 59.4390 0
M  V30 4328 H  21.8453 45.0414 59.9707 0
M  V30 4329 H  23.1378 45.3986 61.0707 0
M  V30 4330 H  25.4778 44.0465 60.3100 0
M  V30 4331 H  21.4081 42.7685 59.6667 0
M  V30 4332 H  26.2135 41.6978 60.2150 0
M  V30 4333 H  22.1790 40.4338 59.5716 0
M  V30 4334 H  24.5691 39.8988 59.8458 0
M  V30 4335 H  21.8572 45.3273 57.1794 0
M  V30 4336 H  23.5964 43.7117 55.5652 0
M  V30 4337 H  21.6941 43.6552 53.9714 0
M  V30 4338 H  20.2927 45.3364 55.7344 0
M  V30 4339 H  19.9888 42.6055 55.4404 0
M  V30 4340 H  21.6120 42.0549 55.8309 0
M  V30 4341 H  20.8116 43.2183 56.8695 0
M  V30 4342 H  22.9824 47.1861 55.5731 0
M  V30 4343 H  23.9954 47.6527 52.8809 0
M  V30 4344 H  23.8815 50.0540 53.6115 0
M  V30 4345 H  22.3673 49.2053 53.8581 0
M  V30 4346 H  23.4275 49.5299 55.2292 0
M  V30 4347 H  25.4701 47.0015 55.9461 0
M  V30 4348 H  28.1082 48.0899 55.0653 0
M  V30 4349 H  28.7496 48.1365 57.4803 0
M  V30 4350 H  26.0188 47.7215 58.0117 0
M  V30 4351 H  27.4369 50.1053 58.1594 0
M  V30 4352 H  27.9263 50.2347 56.4752 0
M  V30 4353 H  26.2687 49.8132 56.8754 0
M  V30 4354 H  10.7600 37.0368 69.0036 0
M  V30 4355 H  15.9180 43.9458 81.1819 0
M  V30 END ATOM
M  V30 BEGIN BOND
M  V30 1 1 1 2
M  V30 2 1 1 2193
M  V30 3 1 1 2194
M  V30 4 1 1 2195
M  V30 5 1 2 3
M  V30 6 1 2 5
M  V30 7 1 2 2196
M  V30 8 2 3 4
M  V30 9 1 3 10
M  V30 10 1 5 6
M  V30 11 1 5 2197
M  V30 12 1 5 2198
M  V30 13 1 6 7
M  V30 14 1 6 2199
M  V30 15 1 6 2200
M  V30 16 1 7 8
M  V30 17 1 7 2201
M  V30 18 1 7 2202
M  V30 19 1 8 9
M  V30 20 1 8 2203
M  V30 21 1 8 2204
M  V30 22 1 9 2205
M  V30 23 1 9 2206
M  V30 24 1 9 2207
M  V30 25 1 10 11
M  V30 26 1 10 16
M  V30 27 1 11 12
M  V30 28 1 11 14
M  V30 29 1 11 2208
M  V30 30 2 12 13
M  V30 31 1 12 17
M  V30 32 1 14 15
M  V30 33 1 14 2209
M  V30 34 1 14 2210
M  V30 35 1 15 16
M  V30 36 1 15 2211
M  V30 37 1 15 2212
M  V30 38 1 16 2213
M  V30 39 1 16 2214
M  V30 40 1 17 18
M  V30 41 1 17 2215
M  V30 42 1 18 19
M  V30 43 1 18 21
M  V30 44 1 18 2216
M  V30 45 2 19 20
M  V30 46 1 19 31
M  V30 47 1 21 22
M  V30 48 1 21 2217
M  V30 49 1 21 2218
M  V30 50 2 22 23
M  V30 51 1 22 24
M  V30 52 1 23 25
M  V30 53 1 23 2219
M  V30 54 2 24 26
M  V30 55 1 24 27
M  V30 56 1 25 26
M  V30 57 1 25 2220
M  V30 58 1 26 28
M  V30 59 2 27 29
M  V30 60 1 27 2221
M  V30 61 2 28 30
M  V30 62 1 28 2222
M  V30 63 1 29 30
M  V30 64 1 29 2223
M  V30 65 1 30 2224
M  V30 66 1 31 32
M  V30 67 1 31 2225
M  V30 68 1 32 33
M  V30 69 1 32 35
M  V30 70 1 32 2226
M  V30 71 2 33 34
M  V30 72 1 33 45
M  V30 73 1 35 36
M  V30 74 1 35 2227
M  V30 75 1 35 2228
M  V30 76 2 36 37
M  V30 77 1 36 38
M  V30 78 1 37 39
M  V30 79 1 37 2229
M  V30 80 2 38 40
M  V30 81 1 38 41
M  V30 82 1 39 40
M  V30 83 1 39 2230
M  V30 84 1 40 42
M  V30 85 2 41 43
M  V30 86 1 41 2231
M  V30 87 2 42 44
M  V30 88 1 42 2232
M  V30 89 1 43 44
M  V30 90 1 43 2233
M  V30 91 1 44 2234
M  V30 92 1 45 46
M  V30 93 1 45 2235
M  V30 94 1 46 47
M  V30 95 1 46 49
M  V30 96 1 46 2236
M  V30 97 2 47 48
M  V30 98 1 47 54
M  V30 99 1 49 50
M  V30 100 1 49 2237
M  V30 101 1 49 2238
M  V30 102 1 50 51
M  V30 103 1 50 2239
M  V30 104 1 50 2240
M  V30 105 2 51 52
M  V30 106 1 51 53
M  V30 107 1 54 55
M  V30 108 1 54 2241
M  V30 109 1 55 56
M  V30 110 1 55 58
M  V30 111 1 55 2242
M  V30 112 2 56 57
M  V30 113 1 56 62
M  V30 114 1 58 59
M  V30 115 1 58 2243
M  V30 116 1 58 2244
M  V30 117 2 59 60
M  V30 118 1 59 61
M  V30 119 1 62 63
M  V30 120 1 62 2245
M  V30 121 1 63 64
M  V30 122 1 63 66
M  V30 123 1 63 2246
M  V30 124 2 64 65
M  V30 125 1 64 71
M  V30 126 1 66 67
M  V30 127 1 66 2247
M  V30 128 1 66 2248
M  V30 129 1 67 68
M  V30 130 1 67 2249
M  V30 131 1 67 2250
M  V30 132 2 68 69
M  V30 133 1 68 70
M  V30 134 1 71 72
M  V30 135 1 71 2251
M  V30 136 1 72 73
M  V30 137 1 72 75
M  V30 138 1 72 2252
M  V30 139 2 73 74
M  V30 140 1 73 85
M  V30 141 1 75 76
M  V30 142 1 75 2253
M  V30 143 1 75 2254
M  V30 144 2 76 77
M  V30 145 1 76 78
M  V30 146 1 77 79
M  V30 147 1 77 2255
M  V30 148 2 78 80
M  V30 149 1 78 81
M  V30 150 1 79 80
M  V30 151 1 79 2256
M  V30 152 1 80 82
M  V30 153 2 81 83
M  V30 154 1 81 2257
M  V30 155 2 82 84
M  V30 156 1 82 2258
M  V30 157 1 83 84
M  V30 158 1 83 2259
M  V30 159 1 84 2260
M  V30 160 1 85 86
M  V30 161 1 85 2261
M  V30 162 1 86 87
M  V30 163 1 86 89
M  V30 164 1 86 2262
M  V30 165 2 87 88
M  V30 166 1 87 94
M  V30 167 1 89 90
M  V30 168 1 89 2263
M  V30 169 1 89 2264
M  V30 170 1 90 91
M  V30 171 1 90 2265
M  V30 172 1 90 2266
M  V30 173 2 91 92
M  V30 174 1 91 93
M  V30 175 1 94 95
M  V30 176 1 94 2267
M  V30 177 1 95 96
M  V30 178 1 95 98
M  V30 179 1 95 2268
M  V30 180 2 96 97
M  V30 181 1 96 101
M  V30 182 1 98 99
M  V30 183 1 98 100
M  V30 184 1 98 2269
M  V30 185 1 99 2270
M  V30 186 1 99 2271
M  V30 187 1 99 2272
M  V30 188 1 100 2273
M  V30 189 1 100 2274
M  V30 190 1 100 2275
M  V30 191 1 101 102
M  V30 192 1 101 107
M  V30 193 1 102 103
M  V30 194 1 102 105
M  V30 195 1 102 2276
M  V30 196 2 103 104
M  V30 197 1 103 108
M  V30 198 1 105 106
M  V30 199 1 105 2277
M  V30 200 1 105 2278
M  V30 201 1 106 107
M  V30 202 1 106 2279
M  V30 203 1 106 2280
M  V30 204 1 107 2281
M  V30 205 1 107 2282
M  V30 206 1 108 109
M  V30 207 1 108 2283
M  V30 208 1 109 110
M  V30 209 1 109 112
M  V30 210 1 109 2284
M  V30 211 2 110 111
M  V30 212 1 110 119
M  V30 213 1 112 113
M  V30 214 1 112 2285
M  V30 215 1 112 2286
M  V30 216 1 113 114
M  V30 217 1 113 2287
M  V30 218 1 113 2288
M  V30 219 1 114 115
M  V30 220 1 114 2289
M  V30 221 1 114 2290
M  V30 222 1 115 116
M  V30 223 1 115 2291
M  V30 224 1 116 117
M  V30 225 2 116 118
M  V30 226 1 117 2292
M  V30 227 1 117 2293
M  V30 228 1 118 2294
M  V30 229 1 118 2295
M  V30 230 1 119 120
M  V30 231 1 119 2296
M  V30 232 1 120 121
M  V30 233 1 120 123
M  V30 234 1 120 2297
M  V30 235 2 121 122
M  V30 236 1 121 128
M  V30 237 1 123 124
M  V30 238 1 123 2298
M  V30 239 1 123 2299
M  V30 240 1 124 125
M  V30 241 1 124 2300
M  V30 242 1 124 2301
M  V30 243 2 125 126
M  V30 244 1 125 127
M  V30 245 1 128 129
M  V30 246 1 128 2302
M  V30 247 1 129 130
M  V30 248 1 129 132
M  V30 249 1 129 2303
M  V30 250 2 130 131
M  V30 251 1 130 135
M  V30 252 1 132 133
M  V30 253 1 132 134
M  V30 254 1 132 2304
M  V30 255 1 133 2305
M  V30 256 1 134 2306
M  V30 257 1 134 2307
M  V30 258 1 134 2308
M  V30 259 1 135 136
M  V30 260 1 135 2309
M  V30 261 1 136 137
M  V30 262 1 136 139
M  V30 263 1 136 2310
M  V30 264 2 137 138
M  V30 265 1 137 143
M  V30 266 1 139 140
M  V30 267 1 139 2311
M  V30 268 1 139 2312
M  V30 269 1 140 141
M  V30 270 1 140 142
M  V30 271 1 140 2313
M  V30 272 1 141 2314
M  V30 273 1 141 2315
M  V30 274 1 141 2316
M  V30 275 1 142 2317
M  V30 276 1 142 2318
M  V30 277 1 142 2319
M  V30 278 1 143 144
M  V30 279 1 143 2320
M  V30 280 1 144 145
M  V30 281 1 144 147
M  V30 282 1 144 2321
M  V30 283 2 145 146
M  V30 284 1 145 152
M  V30 285 1 147 148
M  V30 286 1 147 2322
M  V30 287 1 147 2323
M  V30 288 1 148 149
M  V30 289 1 148 2324
M  V30 290 1 148 2325
M  V30 291 1 149 150
M  V30 292 1 149 2326
M  V30 293 1 149 2327
M  V30 294 1 150 151
M  V30 295 1 150 2328
M  V30 296 1 150 2329
M  V30 297 1 151 2330
M  V30 298 1 151 2331
M  V30 299 1 151 2332
M  V30 300 1 152 153
M  V30 301 1 152 2333
M  V30 302 1 153 154
M  V30 303 1 153 156
M  V30 304 1 153 2334
M  V30 305 2 154 155
M  V30 306 1 154 160
M  V30 307 1 156 157
M  V30 308 1 156 2335
M  V30 309 1 156 2336
M  V30 310 1 157 158
M  V30 311 1 157 159
M  V30 312 1 157 2337
M  V30 313 1 158 2338
M  V30 314 1 158 2339
M  V30 315 1 158 2340
M  V30 316 1 159 2341
M  V30 317 1 159 2342
M  V30 318 1 159 2343
M  V30 319 1 160 161
M  V30 320 1 160 2344
M  V30 321 1 161 162
M  V30 322 1 161 164
M  V30 323 1 161 2345
M  V30 324 2 162 163
M  V30 325 1 162 167
M  V30 326 1 164 165
M  V30 327 1 164 166
M  V30 328 1 164 2346
M  V30 329 1 165 2347
M  V30 330 1 165 2348
M  V30 331 1 165 2349
M  V30 332 1 166 2350
M  V30 333 1 166 2351
M  V30 334 1 166 2352
M  V30 335 1 167 168
M  V30 336 1 167 2353
M  V30 337 1 168 169
M  V30 338 1 168 171
M  V30 339 1 168 2354
M  V30 340 2 169 170
M  V30 341 1 169 176
M  V30 342 1 171 172
M  V30 343 1 171 2355
M  V30 344 1 171 2356
M  V30 345 1 172 173
M  V30 346 1 172 2357
M  V30 347 1 172 2358
M  V30 348 2 173 174
M  V30 349 1 173 175
M  V30 350 1 176 177
M  V30 351 1 176 2359
M  V30 352 1 177 178
M  V30 353 1 177 180
M  V30 354 1 177 2360
M  V30 355 2 178 179
M  V30 356 1 178 187
M  V30 357 1 180 181
M  V30 358 1 180 2361
M  V30 359 1 180 2362
M  V30 360 1 181 182
M  V30 361 1 181 2363
M  V30 362 1 181 2364
M  V30 363 1 182 183
M  V30 364 1 182 2365
M  V30 365 1 182 2366
M  V30 366 1 183 184
M  V30 367 1 183 2367
M  V30 368 1 184 185
M  V30 369 2 184 186
M  V30 370 1 185 2368
M  V30 371 1 185 2369
M  V30 372 1 186 2370
M  V30 373 1 186 2371
M  V30 374 1 187 188
M  V30 375 1 187 2372
M  V30 376 1 188 189
M  V30 377 1 188 191
M  V30 378 1 188 2373
M  V30 379 2 189 190
M  V30 380 1 189 195
M  V30 381 1 191 192
M  V30 382 1 191 2374
M  V30 383 1 191 2375
M  V30 384 1 192 193
M  V30 385 1 192 194
M  V30 386 1 192 2376
M  V30 387 1 193 2377
M  V30 388 1 193 2378
M  V30 389 1 193 2379
M  V30 390 1 194 2380
M  V30 391 1 194 2381
M  V30 392 1 194 2382
M  V30 393 1 195 196
M  V30 394 1 195 2383
M  V30 395 1 196 197
M  V30 396 1 196 2384
M  V30 397 1 196 2385
M  V30 398 2 197 198
M  V30 399 1 197 199
M  V30 400 1 199 200
M  V30 401 1 199 2386
M  V30 402 1 200 201
M  V30 403 1 200 203
M  V30 404 1 200 2387
M  V30 405 2 201 202
M  V30 406 1 201 204
M  V30 407 1 203 2388
M  V30 408 1 203 2389
M  V30 409 1 203 2390
M  V30 410 1 204 205
M  V30 411 1 204 2391
M  V30 412 1 205 206
M  V30 413 1 205 2392
M  V30 414 1 205 2393
M  V30 415 2 206 207
M  V30 416 1 206 208
M  V30 417 1 208 209
M  V30 418 1 208 2394
M  V30 419 1 209 210
M  V30 420 1 209 212
M  V30 421 1 209 2395
M  V30 422 2 210 211
M  V30 423 1 210 217
M  V30 424 1 212 213
M  V30 425 1 212 2396
M  V30 426 1 212 2397
M  V30 427 1 213 214
M  V30 428 1 213 2398
M  V30 429 1 213 2399
M  V30 430 2 214 215
M  V30 431 1 214 216
M  V30 432 1 216 2400
M  V30 433 1 216 2401
M  V30 434 1 217 218
M  V30 435 1 217 2402
M  V30 436 1 218 219
M  V30 437 1 218 221
M  V30 438 1 218 2403
M  V30 439 2 219 220
M  V30 440 1 219 228
M  V30 441 1 221 222
M  V30 442 1 221 2404
M  V30 443 1 221 2405
M  V30 444 2 222 223
M  V30 445 1 222 224
M  V30 446 1 223 225
M  V30 447 1 223 2406
M  V30 448 2 224 226
M  V30 449 1 224 2407
M  V30 450 2 225 227
M  V30 451 1 225 2408
M  V30 452 1 226 227
M  V30 453 1 226 2409
M  V30 454 1 227 2410
M  V30 455 1 228 229
M  V30 456 1 228 2411
M  V30 457 1 229 230
M  V30 458 1 229 2412
M  V30 459 1 229 2413
M  V30 460 2 230 231
M  V30 461 1 230 232
M  V30 462 1 232 233
M  V30 463 1 232 2414
M  V30 464 1 233 234
M  V30 465 1 233 236
M  V30 466 1 233 2415
M  V30 467 2 234 235
M  V30 468 1 234 241
M  V30 469 1 236 237
M  V30 470 1 236 2416
M  V30 471 1 236 2417
M  V30 472 1 237 238
M  V30 473 1 237 2418
M  V30 474 1 237 2419
M  V30 475 2 238 239
M  V30 476 1 238 240
M  V30 477 1 241 242
M  V30 478 1 241 2420
M  V30 479 1 242 243
M  V30 480 1 242 245
M  V30 481 1 242 2421
M  V30 482 2 243 244
M  V30 483 1 243 248
M  V30 484 1 245 246
M  V30 485 1 245 247
M  V30 486 1 245 2422
M  V30 487 1 246 2423
M  V30 488 1 246 2424
M  V30 489 1 246 2425
M  V30 490 1 247 2426
M  V30 491 1 247 2427
M  V30 492 1 247 2428
M  V30 493 1 248 249
M  V30 494 1 248 2429
M  V30 495 1 249 250
M  V30 496 1 249 252
M  V30 497 1 249 2430
M  V30 498 2 250 251
M  V30 499 1 250 262
M  V30 500 1 252 253
M  V30 501 1 252 2431
M  V30 502 1 252 2432
M  V30 503 2 253 254
M  V30 504 1 253 255
M  V30 505 1 254 256
M  V30 506 1 254 2433
M  V30 507 2 255 257
M  V30 508 1 255 258
M  V30 509 1 256 257
M  V30 510 1 256 2434
M  V30 511 1 257 259
M  V30 512 2 258 260
M  V30 513 1 258 2435
M  V30 514 2 259 261
M  V30 515 1 259 2436
M  V30 516 1 260 261
M  V30 517 1 260 2437
M  V30 518 1 261 2438
M  V30 519 1 262 263
M  V30 520 1 262 2439
M  V30 521 1 263 264
M  V30 522 1 263 266
M  V30 523 1 263 2440
M  V30 524 2 264 265
M  V30 525 1 264 270
M  V30 526 1 266 267
M  V30 527 1 266 2441
M  V30 528 1 266 2442
M  V30 529 1 267 268
M  V30 530 1 267 2443
M  V30 531 1 267 2444
M  V30 532 1 268 269
M  V30 533 1 269 2445
M  V30 534 1 269 2446
M  V30 535 1 269 2447
M  V30 536 1 270 271
M  V30 537 1 270 2448
M  V30 538 1 271 272
M  V30 539 1 271 2449
M  V30 540 1 271 2450
M  V30 541 2 272 273
M  V30 542 1 272 274
M  V30 543 1 274 275
M  V30 544 1 274 2451
M  V30 545 1 275 276
M  V30 546 1 275 278
M  V30 547 1 275 2452
M  V30 548 2 276 277
M  V30 549 1 276 286
M  V30 550 1 278 279
M  V30 551 1 278 2453
M  V30 552 1 278 2454
M  V30 553 2 279 280
M  V30 554 1 279 281
M  V30 555 1 280 282
M  V30 556 1 280 2455
M  V30 557 2 281 283
M  V30 558 1 281 2456
M  V30 559 2 282 284
M  V30 560 1 282 2457
M  V30 561 1 283 284
M  V30 562 1 283 2458
M  V30 563 1 284 285
M  V30 564 1 285 2459
M  V30 565 1 286 287
M  V30 566 1 286 2460
M  V30 567 1 287 288
M  V30 568 1 287 290
M  V30 569 1 287 2461
M  V30 570 2 288 289
M  V30 571 1 288 298
M  V30 572 1 290 291
M  V30 573 1 290 2462
M  V30 574 1 290 2463
M  V30 575 2 291 292
M  V30 576 1 291 293
M  V30 577 1 292 294
M  V30 578 1 292 2464
M  V30 579 2 293 295
M  V30 580 1 293 2465
M  V30 581 2 294 296
M  V30 582 1 294 2466
M  V30 583 1 295 296
M  V30 584 1 295 2467
M  V30 585 1 296 297
M  V30 586 1 297 2468
M  V30 587 1 298 299
M  V30 588 1 298 2469
M  V30 589 1 299 300
M  V30 590 1 299 302
M  V30 591 1 299 2470
M  V30 592 2 300 301
M  V30 593 1 300 306
M  V30 594 1 302 303
M  V30 595 1 302 2471
M  V30 596 1 302 2472
M  V30 597 2 303 304
M  V30 598 1 303 305
M  V30 599 1 305 2473
M  V30 600 1 305 2474
M  V30 601 1 306 307
M  V30 602 1 306 2475
M  V30 603 1 307 308
M  V30 604 1 307 2476
M  V30 605 1 307 2477
M  V30 606 2 308 309
M  V30 607 1 308 310
M  V30 608 1 310 311
M  V30 609 1 310 2478
M  V30 610 1 311 312
M  V30 611 1 311 314
M  V30 612 1 311 2479
M  V30 613 2 312 313
M  V30 614 1 312 320
M  V30 615 1 314 315
M  V30 616 1 314 2480
M  V30 617 1 314 2481
M  V30 618 1 315 316
M  V30 619 2 315 317
M  V30 620 1 316 318
M  V30 621 1 316 2482
M  V30 622 1 317 319
M  V30 623 1 317 2483
M  V30 624 2 318 319
M  V30 625 1 318 2484
M  V30 626 1 320 321
M  V30 627 1 320 2485
M  V30 628 1 321 322
M  V30 629 1 321 324
M  V30 630 1 321 2486
M  V30 631 2 322 323
M  V30 632 1 322 327
M  V30 633 1 324 325
M  V30 634 1 324 326
M  V30 635 1 324 2487
M  V30 636 1 325 2488
M  V30 637 1 326 2489
M  V30 638 1 326 2490
M  V30 639 1 326 2491
M  V30 640 1 327 328
M  V30 641 1 327 2492
M  V30 642 1 328 329
M  V30 643 1 328 331
M  V30 644 1 328 2493
M  V30 645 2 329 330
M  V30 646 1 329 336
M  V30 647 1 331 332
M  V30 648 1 331 2494
M  V30 649 1 331 2495
M  V30 650 1 332 333
M  V30 651 1 332 2496
M  V30 652 1 332 2497
M  V30 653 1 333 334
M  V30 654 1 333 2498
M  V30 655 1 333 2499
M  V30 656 1 334 335
M  V30 657 1 334 2500
M  V30 658 1 334 2501
M  V30 659 1 335 2502
M  V30 660 1 335 2503
M  V30 661 1 335 2504
M  V30 662 1 336 337
M  V30 663 1 336 2505
M  V30 664 1 337 338
M  V30 665 1 337 340
M  V30 666 1 337 2506
M  V30 667 2 338 339
M  V30 668 1 338 343
M  V30 669 1 340 341
M  V30 670 1 340 342
M  V30 671 1 340 2507
M  V30 672 1 341 2508
M  V30 673 1 341 2509
M  V30 674 1 341 2510
M  V30 675 1 342 2511
M  V30 676 1 342 2512
M  V30 677 1 342 2513
M  V30 678 1 343 344
M  V30 679 1 343 2514
M  V30 680 1 344 345
M  V30 681 1 344 347
M  V30 682 1 344 2515
M  V30 683 2 345 346
M  V30 684 1 345 348
M  V30 685 1 347 2516
M  V30 686 1 347 2517
M  V30 687 1 347 2518
M  V30 688 1 348 349
M  V30 689 1 348 2519
M  V30 690 1 349 350
M  V30 691 1 349 352
M  V30 692 1 349 2520
M  V30 693 2 350 351
M  V30 694 1 350 355
M  V30 695 1 352 353
M  V30 696 1 352 354
M  V30 697 1 352 2521
M  V30 698 1 353 2522
M  V30 699 1 353 2523
M  V30 700 1 353 2524
M  V30 701 1 354 2525
M  V30 702 1 354 2526
M  V30 703 1 354 2527
M  V30 704 1 355 356
M  V30 705 1 355 2528
M  V30 706 1 356 357
M  V30 707 1 356 359
M  V30 708 1 356 2529
M  V30 709 2 357 358
M  V30 710 1 357 364
M  V30 711 1 359 360
M  V30 712 1 359 2530
M  V30 713 1 359 2531
M  V30 714 1 360 361
M  V30 715 1 360 2532
M  V30 716 1 360 2533
M  V30 717 1 361 362
M  V30 718 1 361 2534
M  V30 719 1 361 2535
M  V30 720 1 362 363
M  V30 721 1 362 2536
M  V30 722 1 362 2537
M  V30 723 1 363 2538
M  V30 724 1 363 2539
M  V30 725 1 363 2540
M  V30 726 1 364 365
M  V30 727 1 364 2541
M  V30 728 1 365 366
M  V30 729 1 365 368
M  V30 730 1 365 2542
M  V30 731 2 366 367
M  V30 732 1 366 370
M  V30 733 1 368 369
M  V30 734 1 368 2543
M  V30 735 1 368 2544
M  V30 736 1 369 2545
M  V30 737 1 370 371
M  V30 738 1 370 2546
M  V30 739 1 371 372
M  V30 740 1 371 374
M  V30 741 1 371 2547
M  V30 742 2 372 373
M  V30 743 1 372 378
M  V30 744 1 374 375
M  V30 745 1 374 2548
M  V30 746 1 374 2549
M  V30 747 1 375 376
M  V30 748 1 375 377
M  V30 749 1 375 2550
M  V30 750 1 376 2551
M  V30 751 1 376 2552
M  V30 752 1 376 2553
M  V30 753 1 377 2554
M  V30 754 1 377 2555
M  V30 755 1 377 2556
M  V30 756 1 378 379
M  V30 757 1 378 2557
M  V30 758 1 379 380
M  V30 759 1 379 382
M  V30 760 1 379 2558
M  V30 761 2 380 381
M  V30 762 1 380 387
M  V30 763 1 382 383
M  V30 764 1 382 2559
M  V30 765 1 382 2560
M  V30 766 1 383 384
M  V30 767 1 383 2561
M  V30 768 1 383 2562
M  V30 769 1 384 385
M  V30 770 1 384 2563
M  V30 771 1 384 2564
M  V30 772 1 385 386
M  V30 773 1 385 2565
M  V30 774 1 385 2566
M  V30 775 1 386 2567
M  V30 776 1 386 2568
M  V30 777 1 386 2569
M  V30 778 1 387 388
M  V30 779 1 387 2570
M  V30 780 1 388 389
M  V30 781 1 388 391
M  V30 782 1 388 2571
M  V30 783 2 389 390
M  V30 784 1 389 396
M  V30 785 1 391 392
M  V30 786 1 391 2572
M  V30 787 1 391 2573
M  V30 788 1 392 393
M  V30 789 1 392 2574
M  V30 790 1 392 2575
M  V30 791 2 393 394
M  V30 792 1 393 395
M  V30 793 1 395 2576
M  V30 794 1 395 2577
M  V30 795 1 396 397
M  V30 796 1 396 2578
M  V30 797 1 397 398
M  V30 798 1 397 2579
M  V30 799 1 397 2580
M  V30 800 2 398 399
M  V30 801 1 398 400
M  V30 802 1 400 401
M  V30 803 1 400 2581
M  V30 804 1 401 402
M  V30 805 1 401 404
M  V30 806 1 401 2582
M  V30 807 2 402 403
M  V30 808 1 402 406
M  V30 809 1 404 405
M  V30 810 1 404 2583
M  V30 811 1 404 2584
M  V30 812 1 405 2585
M  V30 813 1 406 407
M  V30 814 1 406 2586
M  V30 815 1 407 408
M  V30 816 1 407 410
M  V30 817 1 407 2587
M  V30 818 2 408 409
M  V30 819 1 408 414
M  V30 820 1 410 411
M  V30 821 1 410 2588
M  V30 822 1 410 2589
M  V30 823 1 411 412
M  V30 824 1 411 2590
M  V30 825 1 411 2591
M  V30 826 1 412 413
M  V30 827 1 413 2592
M  V30 828 1 413 2593
M  V30 829 1 413 2594
M  V30 830 1 414 415
M  V30 831 1 414 2595
M  V30 832 1 415 416
M  V30 833 1 415 418
M  V30 834 1 415 2596
M  V30 835 2 416 417
M  V30 836 1 416 420
M  V30 837 1 418 419
M  V30 838 1 418 2597
M  V30 839 1 418 2598
M  V30 840 1 419 2599
M  V30 841 1 420 421
M  V30 842 1 420 426
M  V30 843 1 421 422
M  V30 844 1 421 424
M  V30 845 1 421 2600
M  V30 846 2 422 423
M  V30 847 1 422 427
M  V30 848 1 424 425
M  V30 849 1 424 2601
M  V30 850 1 424 2602
M  V30 851 1 425 426
M  V30 852 1 425 2603
M  V30 853 1 425 2604
M  V30 854 1 426 2605
M  V30 855 1 426 2606
M  V30 856 1 427 428
M  V30 857 1 427 2607
M  V30 858 1 428 429
M  V30 859 1 428 431
M  V30 860 1 428 2608
M  V30 861 2 429 430
M  V30 862 1 429 435
M  V30 863 1 431 432
M  V30 864 1 431 2609
M  V30 865 1 431 2610
M  V30 866 2 432 433
M  V30 867 1 432 434
M  V30 868 1 435 436
M  V30 869 1 435 2611
M  V30 870 1 436 437
M  V30 871 1 436 439
M  V30 872 1 436 2612
M  V30 873 2 437 438
M  V30 874 1 437 440
M  V30 875 1 439 2613
M  V30 876 1 439 2614
M  V30 877 1 439 2615
M  V30 878 1 440 441
M  V30 879 1 440 2616
M  V30 880 1 441 442
M  V30 881 1 441 444
M  V30 882 1 441 2617
M  V30 883 2 442 443
M  V30 884 1 442 451
M  V30 885 1 444 445
M  V30 886 1 444 2618
M  V30 887 1 444 2619
M  V30 888 2 445 446
M  V30 889 1 445 447
M  V30 890 1 446 448
M  V30 891 1 446 2620
M  V30 892 2 447 449
M  V30 893 1 447 2621
M  V30 894 2 448 450
M  V30 895 1 448 2622
M  V30 896 1 449 450
M  V30 897 1 449 2623
M  V30 898 1 450 2624
M  V30 899 1 451 452
M  V30 900 1 451 2625
M  V30 901 1 452 453
M  V30 902 1 452 455
M  V30 903 1 452 2626
M  V30 904 2 453 454
M  V30 905 1 453 459
M  V30 906 1 455 456
M  V30 907 1 455 2627
M  V30 908 1 455 2628
M  V30 909 1 456 457
M  V30 910 1 456 458
M  V30 911 1 456 2629
M  V30 912 1 457 2630
M  V30 913 1 457 2631
M  V30 914 1 457 2632
M  V30 915 1 458 2633
M  V30 916 1 458 2634
M  V30 917 1 458 2635
M  V30 918 1 459 460
M  V30 919 1 459 2636
M  V30 920 1 460 461
M  V30 921 1 460 463
M  V30 922 1 460 2637
M  V30 923 2 461 462
M  V30 924 1 461 464
M  V30 925 1 463 2638
M  V30 926 1 463 2639
M  V30 927 1 463 2640
M  V30 928 1 464 465
M  V30 929 1 464 2641
M  V30 930 1 465 466
M  V30 931 1 465 468
M  V30 932 1 465 2642
M  V30 933 2 466 467
M  V30 934 1 466 473
M  V30 935 1 468 469
M  V30 936 1 468 2643
M  V30 937 1 468 2644
M  V30 938 1 469 470
M  V30 939 1 469 2645
M  V30 940 1 469 2646
M  V30 941 2 470 471
M  V30 942 1 470 472
M  V30 943 1 473 474
M  V30 944 1 473 2647
M  V30 945 1 474 475
M  V30 946 1 474 477
M  V30 947 1 474 2648
M  V30 948 2 475 476
M  V30 949 1 475 478
M  V30 950 1 477 2649
M  V30 951 1 477 2650
M  V30 952 1 477 2651
M  V30 953 1 478 479
M  V30 954 1 478 2652
M  V30 955 1 479 480
M  V30 956 1 479 482
M  V30 957 1 479 2653
M  V30 958 2 480 481
M  V30 959 1 480 486
M  V30 960 1 482 483
M  V30 961 1 482 2654
M  V30 962 1 482 2655
M  V30 963 2 483 484
M  V30 964 1 483 485
M  V30 965 1 485 2656
M  V30 966 1 485 2657
M  V30 967 1 486 487
M  V30 968 1 486 2658
M  V30 969 1 487 488
M  V30 970 1 487 490
M  V30 971 1 487 2659
M  V30 972 2 488 489
M  V30 973 1 488 494
M  V30 974 1 490 491
M  V30 975 1 490 2660
M  V30 976 1 490 2661
M  V30 977 1 491 492
M  V30 978 1 491 493
M  V30 979 1 491 2662
M  V30 980 1 492 2663
M  V30 981 1 492 2664
M  V30 982 1 492 2665
M  V30 983 1 493 2666
M  V30 984 1 493 2667
M  V30 985 1 493 2668
M  V30 986 1 494 495
M  V30 987 1 494 2669
M  V30 988 1 495 496
M  V30 989 1 495 498
M  V30 990 1 495 2670
M  V30 991 2 496 497
M  V30 992 1 496 502
M  V30 993 1 498 499
M  V30 994 1 498 2671
M  V30 995 1 498 2672
M  V30 996 1 499 500
M  V30 997 1 499 2673
M  V30 998 1 499 2674
M  V30 999 1 500 501
M  V30 1000 1 501 2675
M  V30 1001 1 501 2676
M  V30 1002 1 501 2677
M  V30 1003 1 502 503
M  V30 1004 1 502 2678
M  V30 1005 1 503 504
M  V30 1006 1 503 506
M  V30 1007 1 503 2679
M  V30 1008 2 504 505
M  V30 1009 1 504 511
M  V30 1010 1 506 507
M  V30 1011 1 506 2680
M  V30 1012 1 506 2681
M  V30 1013 1 507 508
M  V30 1014 1 507 2682
M  V30 1015 1 507 2683
M  V30 1016 1 508 509
M  V30 1017 1 508 2684
M  V30 1018 1 508 2685
M  V30 1019 1 509 510
M  V30 1020 1 509 2686
M  V30 1021 1 509 2687
M  V30 1022 1 510 2688
M  V30 1023 1 510 2689
M  V30 1024 1 510 2690
M  V30 1025 1 511 512
M  V30 1026 1 511 2691
M  V30 1027 1 512 513
M  V30 1028 1 512 515
M  V30 1029 1 512 2692
M  V30 1030 2 513 514
M  V30 1031 1 513 520
M  V30 1032 1 515 516
M  V30 1033 1 515 2693
M  V30 1034 1 515 2694
M  V30 1035 1 516 517
M  V30 1036 1 516 2695
M  V30 1037 1 516 2696
M  V30 1038 2 517 518
M  V30 1039 1 517 519
M  V30 1040 1 519 2697
M  V30 1041 1 519 2698
M  V30 1042 1 520 521
M  V30 1043 1 520 2699
M  V30 1044 1 521 522
M  V30 1045 1 521 524
M  V30 1046 1 521 2700
M  V30 1047 2 522 523
M  V30 1048 1 522 528
M  V30 1049 1 524 525
M  V30 1050 1 524 2701
M  V30 1051 1 524 2702
M  V30 1052 1 525 526
M  V30 1053 1 525 527
M  V30 1054 1 525 2703
M  V30 1055 1 526 2704
M  V30 1056 1 526 2705
M  V30 1057 1 526 2706
M  V30 1058 1 527 2707
M  V30 1059 1 527 2708
M  V30 1060 1 527 2709
M  V30 1061 1 528 529
M  V30 1062 1 528 2710
M  V30 1063 1 529 530
M  V30 1064 1 529 532
M  V30 1065 1 529 2711
M  V30 1066 2 530 531
M  V30 1067 1 530 537
M  V30 1068 1 532 533
M  V30 1069 1 532 2712
M  V30 1070 1 532 2713
M  V30 1071 1 533 534
M  V30 1072 1 533 2714
M  V30 1073 1 533 2715
M  V30 1074 2 534 535
M  V30 1075 1 534 536
M  V30 1076 1 536 2716
M  V30 1077 1 536 2717
M  V30 1078 1 537 538
M  V30 1079 1 537 2718
M  V30 1080 1 538 539
M  V30 1081 1 538 541
M  V30 1082 1 538 2719
M  V30 1083 2 539 540
M  V30 1084 1 539 547
M  V30 1085 1 541 542
M  V30 1086 1 541 2720
M  V30 1087 1 541 2721
M  V30 1088 1 542 543
M  V30 1089 2 542 544
M  V30 1090 2 543 545
M  V30 1091 1 544 546
M  V30 1092 1 544 2722
M  V30 1093 1 545 546
M  V30 1094 1 545 2723
M  V30 1095 1 546 4354
M  V30 1096 1 547 548
M  V30 1097 1 547 2724
M  V30 1098 1 548 549
M  V30 1099 1 548 551
M  V30 1100 1 548 2725
M  V30 1101 2 549 550
M  V30 1102 1 549 556
M  V30 1103 1 551 552
M  V30 1104 1 551 2726
M  V30 1105 1 551 2727
M  V30 1106 1 552 553
M  V30 1107 1 552 2728
M  V30 1108 1 552 2729
M  V30 1109 2 553 554
M  V30 1110 1 553 555
M  V30 1111 1 555 2730
M  V30 1112 1 555 2731
M  V30 1113 1 556 557
M  V30 1114 1 556 2732
M  V30 1115 1 557 558
M  V30 1116 1 557 560
M  V30 1117 1 557 2733
M  V30 1118 2 558 559
M  V30 1119 1 558 567
M  V30 1120 1 560 561
M  V30 1121 1 560 2734
M  V30 1122 1 560 2735
M  V30 1123 1 561 562
M  V30 1124 1 561 2736
M  V30 1125 1 561 2737
M  V30 1126 1 562 563
M  V30 1127 1 562 2738
M  V30 1128 1 562 2739
M  V30 1129 1 563 564
M  V30 1130 1 563 2740
M  V30 1131 1 564 565
M  V30 1132 2 564 566
M  V30 1133 1 565 2741
M  V30 1134 1 565 2742
M  V30 1135 1 566 2743
M  V30 1136 1 566 2744
M  V30 1137 1 567 568
M  V30 1138 1 567 2745
M  V30 1139 1 568 569
M  V30 1140 1 568 571
M  V30 1141 1 568 2746
M  V30 1142 2 569 570
M  V30 1143 1 569 575
M  V30 1144 1 571 572
M  V30 1145 1 571 2747
M  V30 1146 1 571 2748
M  V30 1147 1 572 573
M  V30 1148 1 572 574
M  V30 1149 1 572 2749
M  V30 1150 1 573 2750
M  V30 1151 1 573 2751
M  V30 1152 1 573 2752
M  V30 1153 1 574 2753
M  V30 1154 1 574 2754
M  V30 1155 1 574 2755
M  V30 1156 1 575 576
M  V30 1157 1 575 2756
M  V30 1158 1 576 577
M  V30 1159 1 576 579
M  V30 1160 1 576 2757
M  V30 1161 2 577 578
M  V30 1162 1 577 582
M  V30 1163 1 579 580
M  V30 1164 1 579 581
M  V30 1165 1 579 2758
M  V30 1166 1 580 2759
M  V30 1167 1 580 2760
M  V30 1168 1 580 2761
M  V30 1169 1 581 2762
M  V30 1170 1 581 2763
M  V30 1171 1 581 2764
M  V30 1172 1 582 583
M  V30 1173 1 582 2765
M  V30 1174 1 583 584
M  V30 1175 1 583 586
M  V30 1176 1 583 2766
M  V30 1177 2 584 585
M  V30 1178 1 584 593
M  V30 1179 1 586 587
M  V30 1180 1 586 2767
M  V30 1181 1 586 2768
M  V30 1182 1 587 588
M  V30 1183 1 587 2769
M  V30 1184 1 587 2770
M  V30 1185 1 588 589
M  V30 1186 1 588 2771
M  V30 1187 1 588 2772
M  V30 1188 1 589 590
M  V30 1189 1 589 2773
M  V30 1190 1 590 591
M  V30 1191 2 590 592
M  V30 1192 1 591 2774
M  V30 1193 1 591 2775
M  V30 1194 1 592 2776
M  V30 1195 1 592 2777
M  V30 1196 1 593 594
M  V30 1197 1 593 2778
M  V30 1198 1 594 595
M  V30 1199 1 594 597
M  V30 1200 1 594 2779
M  V30 1201 2 595 596
M  V30 1202 1 595 601
M  V30 1203 1 597 598
M  V30 1204 1 597 2780
M  V30 1205 1 597 2781
M  V30 1206 1 598 599
M  V30 1207 1 598 600
M  V30 1208 1 598 2782
M  V30 1209 1 599 2783
M  V30 1210 1 599 2784
M  V30 1211 1 599 2785
M  V30 1212 1 600 2786
M  V30 1213 1 600 2787
M  V30 1214 1 600 2788
M  V30 1215 1 601 602
M  V30 1216 1 601 2789
M  V30 1217 1 602 603
M  V30 1218 1 602 605
M  V30 1219 1 602 2790
M  V30 1220 2 603 604
M  V30 1221 1 603 613
M  V30 1222 1 605 606
M  V30 1223 1 605 2791
M  V30 1224 1 605 2792
M  V30 1225 2 606 607
M  V30 1226 1 606 608
M  V30 1227 1 607 609
M  V30 1228 1 607 2793
M  V30 1229 2 608 610
M  V30 1230 1 608 2794
M  V30 1231 2 609 611
M  V30 1232 1 609 2795
M  V30 1233 1 610 611
M  V30 1234 1 610 2796
M  V30 1235 1 611 612
M  V30 1236 1 612 2797
M  V30 1237 1 613 614
M  V30 1238 1 613 2798
M  V30 1239 1 614 615
M  V30 1240 1 614 617
M  V30 1241 1 614 2799
M  V30 1242 2 615 616
M  V30 1243 1 615 618
M  V30 1244 1 617 2800
M  V30 1245 1 617 2801
M  V30 1246 1 617 2802
M  V30 1247 1 618 619
M  V30 1248 1 618 2803
M  V30 1249 1 619 620
M  V30 1250 1 619 622
M  V30 1251 1 619 2804
M  V30 1252 2 620 621
M  V30 1253 1 620 625
M  V30 1254 1 622 623
M  V30 1255 1 622 624
M  V30 1256 1 622 2805
M  V30 1257 1 623 2806
M  V30 1258 1 623 2807
M  V30 1259 1 623 2808
M  V30 1260 1 624 2809
M  V30 1261 1 624 2810
M  V30 1262 1 624 2811
M  V30 1263 1 625 626
M  V30 1264 1 625 2812
M  V30 1265 1 626 627
M  V30 1266 1 626 629
M  V30 1267 1 626 2813
M  V30 1268 2 627 628
M  V30 1269 1 627 632
M  V30 1270 1 629 630
M  V30 1271 1 629 631
M  V30 1272 1 629 2814
M  V30 1273 1 630 2815
M  V30 1274 1 630 2816
M  V30 1275 1 630 2817
M  V30 1276 1 631 2818
M  V30 1277 1 631 2819
M  V30 1278 1 631 2820
M  V30 1279 1 632 633
M  V30 1280 1 632 2821
M  V30 1281 1 633 634
M  V30 1282 1 633 636
M  V30 1283 1 633 2822
M  V30 1284 2 634 635
M  V30 1285 1 634 639
M  V30 1286 1 636 637
M  V30 1287 1 636 638
M  V30 1288 1 636 2823
M  V30 1289 1 637 2824
M  V30 1290 1 638 2825
M  V30 1291 1 638 2826
M  V30 1292 1 638 2827
M  V30 1293 1 639 640
M  V30 1294 1 639 2828
M  V30 1295 1 640 641
M  V30 1296 1 640 643
M  V30 1297 1 640 2829
M  V30 1298 2 641 642
M  V30 1299 1 641 644
M  V30 1300 1 643 2830
M  V30 1301 1 643 2831
M  V30 1302 1 643 2832
M  V30 1303 1 644 645
M  V30 1304 1 644 2833
M  V30 1305 1 645 646
M  V30 1306 1 645 648
M  V30 1307 1 645 2834
M  V30 1308 2 646 647
M  V30 1309 1 646 653
M  V30 1310 1 648 649
M  V30 1311 1 648 2835
M  V30 1312 1 648 2836
M  V30 1313 1 649 650
M  V30 1314 1 649 2837
M  V30 1315 1 649 2838
M  V30 1316 2 650 651
M  V30 1317 1 650 652
M  V30 1318 1 653 654
M  V30 1319 1 653 659
M  V30 1320 1 654 655
M  V30 1321 1 654 657
M  V30 1322 1 654 2839
M  V30 1323 2 655 656
M  V30 1324 1 655 660
M  V30 1325 1 657 658
M  V30 1326 1 657 2840
M  V30 1327 1 657 2841
M  V30 1328 1 658 659
M  V30 1329 1 658 2842
M  V30 1330 1 658 2843
M  V30 1331 1 659 2844
M  V30 1332 1 659 2845
M  V30 1333 1 660 661
M  V30 1334 1 660 2846
M  V30 1335 1 661 662
M  V30 1336 1 661 664
M  V30 1337 1 661 2847
M  V30 1338 2 662 663
M  V30 1339 1 662 668
M  V30 1340 1 664 665
M  V30 1341 1 664 666
M  V30 1342 1 664 2848
M  V30 1343 1 665 667
M  V30 1344 1 665 2849
M  V30 1345 1 665 2850
M  V30 1346 1 666 2851
M  V30 1347 1 666 2852
M  V30 1348 1 666 2853
M  V30 1349 1 667 2854
M  V30 1350 1 667 2855
M  V30 1351 1 667 2856
M  V30 1352 1 668 669
M  V30 1353 1 668 2857
M  V30 1354 1 669 670
M  V30 1355 1 669 672
M  V30 1356 1 669 2858
M  V30 1357 2 670 671
M  V30 1358 1 670 680
M  V30 1359 1 672 673
M  V30 1360 1 672 2859
M  V30 1361 1 672 2860
M  V30 1362 2 673 674
M  V30 1363 1 673 675
M  V30 1364 1 674 676
M  V30 1365 1 674 2861
M  V30 1366 2 675 677
M  V30 1367 1 675 2862
M  V30 1368 2 676 678
M  V30 1369 1 676 2863
M  V30 1370 1 677 678
M  V30 1371 1 677 2864
M  V30 1372 1 678 679
M  V30 1373 1 679 2865
M  V30 1374 1 680 681
M  V30 1375 1 680 2866
M  V30 1376 1 681 682
M  V30 1377 1 681 684
M  V30 1378 1 681 2867
M  V30 1379 2 682 683
M  V30 1380 1 682 688
M  V30 1381 1 684 685
M  V30 1382 1 684 686
M  V30 1383 1 684 2868
M  V30 1384 1 685 687
M  V30 1385 1 685 2869
M  V30 1386 1 685 2870
M  V30 1387 1 686 2871
M  V30 1388 1 686 2872
M  V30 1389 1 686 2873
M  V30 1390 1 687 2874
M  V30 1391 1 687 2875
M  V30 1392 1 687 2876
M  V30 1393 1 688 689
M  V30 1394 1 688 2877
M  V30 1395 1 689 690
M  V30 1396 1 689 692
M  V30 1397 1 689 2878
M  V30 1398 2 690 691
M  V30 1399 1 690 696
M  V30 1400 1 692 693
M  V30 1401 1 692 694
M  V30 1402 1 692 2879
M  V30 1403 1 693 695
M  V30 1404 1 693 2880
M  V30 1405 1 693 2881
M  V30 1406 1 694 2882
M  V30 1407 1 694 2883
M  V30 1408 1 694 2884
M  V30 1409 1 695 2885
M  V30 1410 1 695 2886
M  V30 1411 1 695 2887
M  V30 1412 1 696 697
M  V30 1413 1 696 2888
M  V30 1414 1 697 698
M  V30 1415 1 697 700
M  V30 1416 1 697 2889
M  V30 1417 2 698 699
M  V30 1418 1 698 703
M  V30 1419 1 700 701
M  V30 1420 1 700 702
M  V30 1421 1 700 2890
M  V30 1422 1 701 2891
M  V30 1423 1 702 2892
M  V30 1424 1 702 2893
M  V30 1425 1 702 2894
M  V30 1426 1 703 704
M  V30 1427 1 703 2895
M  V30 1428 1 704 705
M  V30 1429 1 704 707
M  V30 1430 1 704 2896
M  V30 1431 2 705 706
M  V30 1432 1 705 712
M  V30 1433 1 707 708
M  V30 1434 1 707 2897
M  V30 1435 1 707 2898
M  V30 1436 1 708 709
M  V30 1437 1 708 2899
M  V30 1438 1 708 2900
M  V30 1439 2 709 710
M  V30 1440 1 709 711
M  V30 1441 1 712 713
M  V30 1442 1 712 2901
M  V30 1443 1 713 714
M  V30 1444 1 713 716
M  V30 1445 1 713 2902
M  V30 1446 2 714 715
M  V30 1447 1 714 724
M  V30 1448 1 716 717
M  V30 1449 1 716 2903
M  V30 1450 1 716 2904
M  V30 1451 2 717 718
M  V30 1452 1 717 719
M  V30 1453 1 718 720
M  V30 1454 1 718 2905
M  V30 1455 2 719 721
M  V30 1456 1 719 2906
M  V30 1457 2 720 722
M  V30 1458 1 720 2907
M  V30 1459 1 721 722
M  V30 1460 1 721 2908
M  V30 1461 1 722 723
M  V30 1462 1 723 2909
M  V30 1463 1 724 725
M  V30 1464 1 724 2910
M  V30 1465 1 725 726
M  V30 1466 1 725 728
M  V30 1467 1 725 2911
M  V30 1468 2 726 727
M  V30 1469 1 726 732
M  V30 1470 1 728 729
M  V30 1471 1 728 2912
M  V30 1472 1 728 2913
M  V30 1473 1 729 730
M  V30 1474 1 729 2914
M  V30 1475 1 729 2915
M  V30 1476 1 730 731
M  V30 1477 1 731 2916
M  V30 1478 1 731 2917
M  V30 1479 1 731 2918
M  V30 1480 1 732 733
M  V30 1481 1 732 2919
M  V30 1482 1 733 734
M  V30 1483 1 733 736
M  V30 1484 1 733 2920
M  V30 1485 2 734 735
M  V30 1486 1 734 741
M  V30 1487 1 736 737
M  V30 1488 1 736 2921
M  V30 1489 1 736 2922
M  V30 1490 1 737 738
M  V30 1491 1 737 2923
M  V30 1492 1 737 2924
M  V30 1493 2 738 739
M  V30 1494 1 738 740
M  V30 1495 1 741 742
M  V30 1496 1 741 2925
M  V30 1497 1 742 743
M  V30 1498 1 742 745
M  V30 1499 1 742 2926
M  V30 1500 2 743 744
M  V30 1501 1 743 749
M  V30 1502 1 745 746
M  V30 1503 1 745 2927
M  V30 1504 1 745 2928
M  V30 1505 2 746 747
M  V30 1506 1 746 748
M  V30 1507 1 748 2929
M  V30 1508 1 748 2930
M  V30 1509 1 749 750
M  V30 1510 1 749 2931
M  V30 1511 1 750 751
M  V30 1512 1 750 2932
M  V30 1513 1 750 2933
M  V30 1514 2 751 752
M  V30 1515 1 751 753
M  V30 1516 1 753 754
M  V30 1517 1 753 2934
M  V30 1518 1 754 755
M  V30 1519 1 754 757
M  V30 1520 1 754 2935
M  V30 1521 2 755 756
M  V30 1522 1 755 759
M  V30 1523 1 757 758
M  V30 1524 1 757 2936
M  V30 1525 1 757 2937
M  V30 1526 1 758 2938
M  V30 1527 1 759 760
M  V30 1528 1 759 2939
M  V30 1529 1 760 761
M  V30 1530 1 760 763
M  V30 1531 1 760 2940
M  V30 1532 2 761 762
M  V30 1533 1 761 767
M  V30 1534 1 763 764
M  V30 1535 1 763 2941
M  V30 1536 1 763 2942
M  V30 1537 1 764 765
M  V30 1538 1 764 766
M  V30 1539 1 764 2943
M  V30 1540 1 765 2944
M  V30 1541 1 765 2945
M  V30 1542 1 765 2946
M  V30 1543 1 766 2947
M  V30 1544 1 766 2948
M  V30 1545 1 766 2949
M  V30 1546 1 767 768
M  V30 1547 1 767 2950
M  V30 1548 1 768 769
M  V30 1549 1 768 771
M  V30 1550 1 768 2951
M  V30 1551 2 769 770
M  V30 1552 1 769 774
M  V30 1553 1 771 772
M  V30 1554 1 771 773
M  V30 1555 1 771 2952
M  V30 1556 1 772 2953
M  V30 1557 1 772 2954
M  V30 1558 1 772 2955
M  V30 1559 1 773 2956
M  V30 1560 1 773 2957
M  V30 1561 1 773 2958
M  V30 1562 1 774 775
M  V30 1563 1 774 2959
M  V30 1564 1 775 776
M  V30 1565 1 775 778
M  V30 1566 1 775 2960
M  V30 1567 2 776 777
M  V30 1568 1 776 782
M  V30 1569 1 778 779
M  V30 1570 1 778 2961
M  V30 1571 1 778 2962
M  V30 1572 2 779 780
M  V30 1573 1 779 781
M  V30 1574 1 782 783
M  V30 1575 1 782 2963
M  V30 1576 1 783 784
M  V30 1577 1 783 786
M  V30 1578 1 783 2964
M  V30 1579 2 784 785
M  V30 1580 1 784 793
M  V30 1581 1 786 787
M  V30 1582 1 786 2965
M  V30 1583 1 786 2966
M  V30 1584 2 787 788
M  V30 1585 1 787 789
M  V30 1586 1 788 790
M  V30 1587 1 788 2967
M  V30 1588 2 789 791
M  V30 1589 1 789 2968
M  V30 1590 2 790 792
M  V30 1591 1 790 2969
M  V30 1592 1 791 792
M  V30 1593 1 791 2970
M  V30 1594 1 792 2971
M  V30 1595 1 793 794
M  V30 1596 1 793 2972
M  V30 1597 1 794 795
M  V30 1598 1 794 797
M  V30 1599 1 794 2973
M  V30 1600 2 795 796
M  V30 1601 1 795 801
M  V30 1602 1 797 798
M  V30 1603 1 797 2974
M  V30 1604 1 797 2975
M  V30 1605 1 798 799
M  V30 1606 1 798 800
M  V30 1607 1 798 2976
M  V30 1608 1 799 2977
M  V30 1609 1 799 2978
M  V30 1610 1 799 2979
M  V30 1611 1 800 2980
M  V30 1612 1 800 2981
M  V30 1613 1 800 2982
M  V30 1614 1 801 802
M  V30 1615 1 801 2983
M  V30 1616 1 802 803
M  V30 1617 1 802 805
M  V30 1618 1 802 2984
M  V30 1619 2 803 804
M  V30 1620 1 803 810
M  V30 1621 1 805 806
M  V30 1622 1 805 2985
M  V30 1623 1 805 2986
M  V30 1624 1 806 807
M  V30 1625 1 806 2987
M  V30 1626 1 806 2988
M  V30 1627 1 807 808
M  V30 1628 1 807 2989
M  V30 1629 1 807 2990
M  V30 1630 1 808 809
M  V30 1631 1 808 2991
M  V30 1632 1 808 2992
M  V30 1633 1 809 2993
M  V30 1634 1 809 2994
M  V30 1635 1 809 2995
M  V30 1636 1 810 811
M  V30 1637 1 810 2996
M  V30 1638 1 811 812
M  V30 1639 1 811 814
M  V30 1640 1 811 2997
M  V30 1641 2 812 813
M  V30 1642 1 812 817
M  V30 1643 1 814 815
M  V30 1644 1 814 816
M  V30 1645 1 814 2998
M  V30 1646 1 815 2999
M  V30 1647 1 816 3000
M  V30 1648 1 816 3001
M  V30 1649 1 816 3002
M  V30 1650 1 817 818
M  V30 1651 1 817 823
M  V30 1652 1 818 819
M  V30 1653 1 818 821
M  V30 1654 1 818 3003
M  V30 1655 2 819 820
M  V30 1656 1 819 824
M  V30 1657 1 821 822
M  V30 1658 1 821 3004
M  V30 1659 1 821 3005
M  V30 1660 1 822 823
M  V30 1661 1 822 3006
M  V30 1662 1 822 3007
M  V30 1663 1 823 3008
M  V30 1664 1 823 3009
M  V30 1665 1 824 825
M  V30 1666 1 824 3010
M  V30 1667 1 825 826
M  V30 1668 1 825 828
M  V30 1669 1 825 3011
M  V30 1670 2 826 827
M  V30 1671 1 826 830
M  V30 1672 1 828 829
M  V30 1673 1 828 3012
M  V30 1674 1 828 3013
M  V30 1675 1 829 3014
M  V30 1676 1 830 831
M  V30 1677 1 830 3015
M  V30 1678 1 831 832
M  V30 1679 1 831 3016
M  V30 1680 1 831 3017
M  V30 1681 2 832 833
M  V30 1682 1 832 834
M  V30 1683 1 834 835
M  V30 1684 1 834 3018
M  V30 1685 1 835 836
M  V30 1686 1 835 838
M  V30 1687 1 835 3019
M  V30 1688 2 836 837
M  V30 1689 1 836 842
M  V30 1690 1 838 839
M  V30 1691 1 838 840
M  V30 1692 1 838 3020
M  V30 1693 1 839 841
M  V30 1694 1 839 3021
M  V30 1695 1 839 3022
M  V30 1696 1 840 3023
M  V30 1697 1 840 3024
M  V30 1698 1 840 3025
M  V30 1699 1 841 3026
M  V30 1700 1 841 3027
M  V30 1701 1 841 3028
M  V30 1702 1 842 843
M  V30 1703 1 842 3029
M  V30 1704 1 843 844
M  V30 1705 1 843 846
M  V30 1706 1 843 3030
M  V30 1707 2 844 845
M  V30 1708 1 844 851
M  V30 1709 1 846 847
M  V30 1710 1 846 3031
M  V30 1711 1 846 3032
M  V30 1712 1 847 848
M  V30 1713 1 847 3033
M  V30 1714 1 847 3034
M  V30 1715 1 848 849
M  V30 1716 1 848 3035
M  V30 1717 1 848 3036
M  V30 1718 1 849 850
M  V30 1719 1 849 3037
M  V30 1720 1 849 3038
M  V30 1721 1 850 3039
M  V30 1722 1 850 3040
M  V30 1723 1 850 3041
M  V30 1724 1 851 852
M  V30 1725 1 851 3042
M  V30 1726 1 852 853
M  V30 1727 1 852 855
M  V30 1728 1 852 3043
M  V30 1729 2 853 854
M  V30 1730 1 853 859
M  V30 1731 1 855 856
M  V30 1732 1 855 3044
M  V30 1733 1 855 3045
M  V30 1734 1 856 857
M  V30 1735 1 856 858
M  V30 1736 1 856 3046
M  V30 1737 1 857 3047
M  V30 1738 1 857 3048
M  V30 1739 1 857 3049
M  V30 1740 1 858 3050
M  V30 1741 1 858 3051
M  V30 1742 1 858 3052
M  V30 1743 1 859 860
M  V30 1744 1 859 3053
M  V30 1745 1 860 861
M  V30 1746 1 860 863
M  V30 1747 1 860 3054
M  V30 1748 2 861 862
M  V30 1749 1 861 866
M  V30 1750 1 863 864
M  V30 1751 1 863 865
M  V30 1752 1 863 3055
M  V30 1753 1 864 3056
M  V30 1754 1 865 3057
M  V30 1755 1 865 3058
M  V30 1756 1 865 3059
M  V30 1757 1 866 867
M  V30 1758 1 866 3060
M  V30 1759 1 867 868
M  V30 1760 1 867 870
M  V30 1761 1 867 3061
M  V30 1762 2 868 869
M  V30 1763 1 868 874
M  V30 1764 1 870 871
M  V30 1765 1 870 872
M  V30 1766 1 870 3062
M  V30 1767 1 871 873
M  V30 1768 1 871 3063
M  V30 1769 1 871 3064
M  V30 1770 1 872 3065
M  V30 1771 1 872 3066
M  V30 1772 1 872 3067
M  V30 1773 1 873 3068
M  V30 1774 1 873 3069
M  V30 1775 1 873 3070
M  V30 1776 1 874 875
M  V30 1777 1 874 3071
M  V30 1778 1 875 876
M  V30 1779 1 875 878
M  V30 1780 1 875 3072
M  V30 1781 2 876 877
M  V30 1782 1 876 882
M  V30 1783 1 878 879
M  V30 1784 1 878 3073
M  V30 1785 1 878 3074
M  V30 1786 2 879 880
M  V30 1787 1 879 881
M  V30 1788 1 881 3075
M  V30 1789 1 881 3076
M  V30 1790 1 882 883
M  V30 1791 1 882 3077
M  V30 1792 1 883 884
M  V30 1793 1 883 886
M  V30 1794 1 883 3078
M  V30 1795 2 884 885
M  V30 1796 1 884 891
M  V30 1797 1 886 887
M  V30 1798 1 886 3079
M  V30 1799 1 886 3080
M  V30 1800 1 887 888
M  V30 1801 1 887 3081
M  V30 1802 1 887 3082
M  V30 1803 1 888 889
M  V30 1804 1 888 3083
M  V30 1805 1 888 3084
M  V30 1806 1 889 890
M  V30 1807 1 889 3085
M  V30 1808 1 889 3086
M  V30 1809 1 890 3087
M  V30 1810 1 890 3088
M  V30 1811 1 890 3089
M  V30 1812 1 891 892
M  V30 1813 1 891 3090
M  V30 1814 1 892 893
M  V30 1815 1 892 895
M  V30 1816 1 892 3091
M  V30 1817 2 893 894
M  V30 1818 1 893 899
M  V30 1819 1 895 896
M  V30 1820 1 895 3092
M  V30 1821 1 895 3093
M  V30 1822 1 896 897
M  V30 1823 1 896 898
M  V30 1824 1 896 3094
M  V30 1825 1 897 3095
M  V30 1826 1 897 3096
M  V30 1827 1 897 3097
M  V30 1828 1 898 3098
M  V30 1829 1 898 3099
M  V30 1830 1 898 3100
M  V30 1831 1 899 900
M  V30 1832 1 899 3101
M  V30 1833 1 900 901
M  V30 1834 1 900 903
M  V30 1835 1 900 3102
M  V30 1836 2 901 902
M  V30 1837 1 901 907
M  V30 1838 1 903 904
M  V30 1839 1 903 3103
M  V30 1840 1 903 3104
M  V30 1841 1 904 905
M  V30 1842 1 904 906
M  V30 1843 1 904 3105
M  V30 1844 1 905 3106
M  V30 1845 1 905 3107
M  V30 1846 1 905 3108
M  V30 1847 1 906 3109
M  V30 1848 1 906 3110
M  V30 1849 1 906 3111
M  V30 1850 1 907 908
M  V30 1851 1 907 3112
M  V30 1852 1 908 909
M  V30 1853 1 908 911
M  V30 1854 1 908 3113
M  V30 1855 2 909 910
M  V30 1856 1 909 915
M  V30 1857 1 911 912
M  V30 1858 1 911 3114
M  V30 1859 1 911 3115
M  V30 1860 2 912 913
M  V30 1861 1 912 914
M  V30 1862 1 915 916
M  V30 1863 1 915 3116
M  V30 1864 1 916 917
M  V30 1865 1 916 919
M  V30 1866 1 916 3117
M  V30 1867 2 917 918
M  V30 1868 1 917 923
M  V30 1869 1 919 920
M  V30 1870 1 919 3118
M  V30 1871 1 919 3119
M  V30 1872 1 920 921
M  V30 1873 1 920 3120
M  V30 1874 1 920 3121
M  V30 1875 1 921 922
M  V30 1876 1 922 3122
M  V30 1877 1 922 3123
M  V30 1878 1 922 3124
M  V30 1879 1 923 924
M  V30 1880 1 923 3125
M  V30 1881 1 924 925
M  V30 1882 1 924 927
M  V30 1883 1 924 3126
M  V30 1884 2 925 926
M  V30 1885 1 925 928
M  V30 1886 1 927 3127
M  V30 1887 1 927 3128
M  V30 1888 1 927 3129
M  V30 1889 1 928 929
M  V30 1890 1 928 3130
M  V30 1891 1 929 930
M  V30 1892 1 929 932
M  V30 1893 1 929 3131
M  V30 1894 2 930 931
M  V30 1895 1 930 933
M  V30 1896 1 932 3132
M  V30 1897 1 932 3133
M  V30 1898 1 932 3134
M  V30 1899 1 933 934
M  V30 1900 1 933 3135
M  V30 1901 1 934 935
M  V30 1902 1 934 937
M  V30 1903 1 934 3136
M  V30 1904 2 935 936
M  V30 1905 1 935 942
M  V30 1906 1 937 938
M  V30 1907 1 937 3137
M  V30 1908 1 937 3138
M  V30 1909 1 938 939
M  V30 1910 1 938 3139
M  V30 1911 1 938 3140
M  V30 1912 2 939 940
M  V30 1913 1 939 941
M  V30 1914 1 941 3141
M  V30 1915 1 941 3142
M  V30 1916 1 942 943
M  V30 1917 1 942 3143
M  V30 1918 1 943 944
M  V30 1919 1 943 946
M  V30 1920 1 943 3144
M  V30 1921 2 944 945
M  V30 1922 1 944 950
M  V30 1923 1 946 947
M  V30 1924 1 946 948
M  V30 1925 1 946 3145
M  V30 1926 1 947 949
M  V30 1927 1 947 3146
M  V30 1928 1 947 3147
M  V30 1929 1 948 3148
M  V30 1930 1 948 3149
M  V30 1931 1 948 3150
M  V30 1932 1 949 3151
M  V30 1933 1 949 3152
M  V30 1934 1 949 3153
M  V30 1935 1 950 951
M  V30 1936 1 950 3154
M  V30 1937 1 951 952
M  V30 1938 1 951 954
M  V30 1939 1 951 3155
M  V30 1940 2 952 953
M  V30 1941 1 952 955
M  V30 1942 1 954 3156
M  V30 1943 1 954 3157
M  V30 1944 1 954 3158
M  V30 1945 1 955 956
M  V30 1946 1 955 3159
M  V30 1947 1 956 957
M  V30 1948 1 956 959
M  V30 1949 1 956 3160
M  V30 1950 2 957 958
M  V30 1951 1 957 964
M  V30 1952 1 959 960
M  V30 1953 1 959 3161
M  V30 1954 1 959 3162
M  V30 1955 1 960 961
M  V30 1956 1 960 3163
M  V30 1957 1 960 3164
M  V30 1958 2 961 962
M  V30 1959 1 961 963
M  V30 1960 1 964 965
M  V30 1961 1 964 3165
M  V30 1962 1 965 966
M  V30 1963 1 965 3166
M  V30 1964 1 965 3167
M  V30 1965 2 966 967
M  V30 1966 1 966 968
M  V30 1967 1 968 969
M  V30 1968 1 968 3168
M  V30 1969 1 969 970
M  V30 1970 1 969 972
M  V30 1971 1 969 3169
M  V30 1972 2 970 971
M  V30 1973 1 970 976
M  V30 1974 1 972 973
M  V30 1975 1 972 3170
M  V30 1976 1 972 3171
M  V30 1977 1 973 974
M  V30 1978 1 973 3172
M  V30 1979 1 973 3173
M  V30 1980 1 974 975
M  V30 1981 1 975 3174
M  V30 1982 1 975 3175
M  V30 1983 1 975 3176
M  V30 1984 1 976 977
M  V30 1985 1 976 3177
M  V30 1986 1 977 978
M  V30 1987 1 977 980
M  V30 1988 1 977 3178
M  V30 1989 2 978 979
M  V30 1990 1 978 981
M  V30 1991 1 980 3179
M  V30 1992 1 980 3180
M  V30 1993 1 980 3181
M  V30 1994 1 981 982
M  V30 1995 1 981 3182
M  V30 1996 1 982 983
M  V30 1997 1 982 985
M  V30 1998 1 982 3183
M  V30 1999 2 983 984
M  V30 2000 1 983 992
M  V30 2001 1 985 986
M  V30 2002 1 985 3184
M  V30 2003 1 985 3185
M  V30 2004 2 986 987
M  V30 2005 1 986 988
M  V30 2006 1 987 989
M  V30 2007 1 987 3186
M  V30 2008 2 988 990
M  V30 2009 1 988 3187
M  V30 2010 2 989 991
M  V30 2011 1 989 3188
M  V30 2012 1 990 991
M  V30 2013 1 990 3189
M  V30 2014 1 991 3190
M  V30 2015 1 992 993
M  V30 2016 1 992 3191
M  V30 2017 1 993 994
M  V30 2018 1 993 996
M  V30 2019 1 993 3192
M  V30 2020 2 994 995
M  V30 2021 1 994 1000
M  V30 2022 1 996 997
M  V30 2023 1 996 998
M  V30 2024 1 996 3193
M  V30 2025 1 997 999
M  V30 2026 1 997 3194
M  V30 2027 1 997 3195
M  V30 2028 1 998 3196
M  V30 2029 1 998 3197
M  V30 2030 1 998 3198
M  V30 2031 1 999 3199
M  V30 2032 1 999 3200
M  V30 2033 1 999 3201
M  V30 2034 1 1000 1001
M  V30 2035 1 1000 3202
M  V30 2036 1 1001 1002
M  V30 2037 1 1001 1004
M  V30 2038 1 1001 3203
M  V30 2039 2 1002 1003
M  V30 2040 1 1002 1009
M  V30 2041 1 1004 1005
M  V30 2042 1 1004 3204
M  V30 2043 1 1004 3205
M  V30 2044 1 1005 1006
M  V30 2045 1 1005 3206
M  V30 2046 1 1005 3207
M  V30 2047 2 1006 1007
M  V30 2048 1 1006 1008
M  V30 2049 1 1009 1010
M  V30 2050 1 1009 3208
M  V30 2051 1 1010 1011
M  V30 2052 1 1010 1013
M  V30 2053 1 1010 3209
M  V30 2054 2 1011 1012
M  V30 2055 1 1011 1018
M  V30 2056 1 1013 1014
M  V30 2057 1 1013 3210
M  V30 2058 1 1013 3211
M  V30 2059 1 1014 1015
M  V30 2060 1 1014 3212
M  V30 2061 1 1014 3213
M  V30 2062 2 1015 1016
M  V30 2063 1 1015 1017
M  V30 2064 1 1018 1019
M  V30 2065 1 1018 3214
M  V30 2066 1 1019 1020
M  V30 2067 1 1019 1022
M  V30 2068 1 1019 3215
M  V30 2069 2 1020 1021
M  V30 2070 1 1020 1029
M  V30 2071 1 1022 1023
M  V30 2072 1 1022 3216
M  V30 2073 1 1022 3217
M  V30 2074 1 1023 1024
M  V30 2075 1 1023 3218
M  V30 2076 1 1023 3219
M  V30 2077 1 1024 1025
M  V30 2078 1 1024 3220
M  V30 2079 1 1024 3221
M  V30 2080 1 1025 1026
M  V30 2081 1 1025 3222
M  V30 2082 1 1026 1027
M  V30 2083 2 1026 1028
M  V30 2084 1 1027 3223
M  V30 2085 1 1027 3224
M  V30 2086 1 1028 3225
M  V30 2087 1 1028 3226
M  V30 2088 1 1029 1030
M  V30 2089 1 1029 3227
M  V30 2090 1 1030 1031
M  V30 2091 1 1030 1033
M  V30 2092 1 1030 3228
M  V30 2093 2 1031 1032
M  V30 2094 1 1031 1037
M  V30 2095 1 1033 1034
M  V30 2096 1 1033 3229
M  V30 2097 1 1033 3230
M  V30 2098 2 1034 1035
M  V30 2099 1 1034 1036
M  V30 2100 1 1036 3231
M  V30 2101 1 1036 3232
M  V30 2102 1 1037 1038
M  V30 2103 1 1037 3233
M  V30 2104 1 1038 1039
M  V30 2105 1 1038 1041
M  V30 2106 1 1038 3234
M  V30 2107 2 1039 1040
M  V30 2108 1 1039 1049
M  V30 2109 1 1041 1042
M  V30 2110 1 1041 3235
M  V30 2111 1 1041 3236
M  V30 2112 2 1042 1043
M  V30 2113 1 1042 1044
M  V30 2114 1 1043 1045
M  V30 2115 1 1043 3237
M  V30 2116 2 1044 1046
M  V30 2117 1 1044 3238
M  V30 2118 2 1045 1047
M  V30 2119 1 1045 3239
M  V30 2120 1 1046 1047
M  V30 2121 1 1046 3240
M  V30 2122 1 1047 1048
M  V30 2123 1 1048 3241
M  V30 2124 1 1049 1050
M  V30 2125 1 1049 3242
M  V30 2126 1 1050 1051
M  V30 2127 1 1050 1053
M  V30 2128 1 1050 3243
M  V30 2129 2 1051 1052
M  V30 2130 1 1051 1057
M  V30 2131 1 1053 1054
M  V30 2132 1 1053 1055
M  V30 2133 1 1053 3244
M  V30 2134 1 1054 1056
M  V30 2135 1 1054 3245
M  V30 2136 1 1054 3246
M  V30 2137 1 1055 3247
M  V30 2138 1 1055 3248
M  V30 2139 1 1055 3249
M  V30 2140 1 1056 3250
M  V30 2141 1 1056 3251
M  V30 2142 1 1056 3252
M  V30 2143 1 1057 1058
M  V30 2144 1 1057 3253
M  V30 2145 1 1058 1059
M  V30 2146 1 1058 1061
M  V30 2147 1 1058 3254
M  V30 2148 2 1059 1060
M  V30 2149 1 1059 1067
M  V30 2150 1 1061 1062
M  V30 2151 1 1061 3255
M  V30 2152 1 1061 3256
M  V30 2153 1 1062 1063
M  V30 2154 2 1062 1064
M  V30 2155 2 1063 1065
M  V30 2156 1 1064 1066
M  V30 2157 1 1064 3257
M  V30 2158 1 1065 1066
M  V30 2159 1 1065 3258
M  V30 2160 1 1066 4355
M  V30 2161 1 1067 1068
M  V30 2162 1 1067 3259
M  V30 2163 1 1068 1069
M  V30 2164 1 1068 1071
M  V30 2165 1 1068 3260
M  V30 2166 2 1069 1070
M  V30 2167 1 1069 1078
M  V30 2168 1 1071 1072
M  V30 2169 1 1071 3261
M  V30 2170 1 1071 3262
M  V30 2171 1 1072 1073
M  V30 2172 1 1072 3263
M  V30 2173 1 1072 3264
M  V30 2174 1 1073 1074
M  V30 2175 1 1073 3265
M  V30 2176 1 1073 3266
M  V30 2177 1 1074 1075
M  V30 2178 1 1074 3267
M  V30 2179 1 1075 1076
M  V30 2180 2 1075 1077
M  V30 2181 1 1076 3268
M  V30 2182 1 1076 3269
M  V30 2183 1 1077 3270
M  V30 2184 1 1077 3271
M  V30 2185 1 1078 1079
M  V30 2186 1 1078 3272
M  V30 2187 1 1079 1080
M  V30 2188 1 1079 1082
M  V30 2189 1 1079 3273
M  V30 2190 2 1080 1081
M  V30 2191 1 1080 1086
M  V30 2192 1 1082 1083
M  V30 2193 1 1082 3274
M  V30 2194 1 1082 3275
M  V30 2195 2 1083 1084
M  V30 2196 1 1083 1085
M  V30 2197 1 1086 1087
M  V30 2198 1 1086 3276
M  V30 2199 1 1087 1088
M  V30 2200 1 1087 1090
M  V30 2201 1 1087 3277
M  V30 2202 2 1088 1089
M  V30 2203 1 1088 1094
M  V30 2204 1 1090 1091
M  V30 2205 1 1090 3278
M  V30 2206 1 1090 3279
M  V30 2207 1 1091 1092
M  V30 2208 1 1091 1093
M  V30 2209 1 1091 3280
M  V30 2210 1 1092 3281
M  V30 2211 1 1092 3282
M  V30 2212 1 1092 3283
M  V30 2213 1 1093 3284
M  V30 2214 1 1093 3285
M  V30 2215 1 1093 3286
M  V30 2216 1 1094 1095
M  V30 2217 1 1094 3287
M  V30 2218 1 1095 1096
M  V30 2219 1 1095 1098
M  V30 2220 1 1095 3288
M  V30 2221 2 1096 1097
M  V30 2222 1 1096 1105
M  V30 2223 1 1098 1099
M  V30 2224 1 1098 3289
M  V30 2225 1 1098 3290
M  V30 2226 1 1099 1100
M  V30 2227 1 1099 3291
M  V30 2228 1 1099 3292
M  V30 2229 1 1100 1101
M  V30 2230 1 1100 3293
M  V30 2231 1 1100 3294
M  V30 2232 1 1101 1102
M  V30 2233 1 1101 3295
M  V30 2234 1 1102 1103
M  V30 2235 2 1102 1104
M  V30 2236 1 1103 3296
M  V30 2237 1 1103 3297
M  V30 2238 1 1104 3298
M  V30 2239 1 1104 3299
M  V30 2240 1 1105 1106
M  V30 2241 1 1105 3300
M  V30 2242 1 1106 1107
M  V30 2243 1 1106 1109
M  V30 2244 1 1106 3301
M  V30 2245 2 1107 1108
M  V30 2246 1 1107 1110
M  V30 2247 1 1109 3302
M  V30 2248 1 1109 3303
M  V30 2249 1 1109 3304
M  V30 2250 1 1110 1111
M  V30 2251 1 1110 3305
M  V30 2252 1 1111 1112
M  V30 2253 1 1111 1114
M  V30 2254 1 1111 3306
M  V30 2255 2 1112 1113
M  V30 2256 1 1112 1115
M  V30 2257 1 1114 3307
M  V30 2258 1 1114 3308
M  V30 2259 1 1114 3309
M  V30 2260 1 1115 1116
M  V30 2261 1 1115 3310
M  V30 2262 1 1116 1117
M  V30 2263 1 1116 1119
M  V30 2264 1 1116 3311
M  V30 2265 2 1117 1118
M  V30 2266 1 1117 1123
M  V30 2267 1 1119 1120
M  V30 2268 1 1119 3312
M  V30 2269 1 1119 3313
M  V30 2270 2 1120 1121
M  V30 2271 1 1120 1122
M  V30 2272 1 1122 3314
M  V30 2273 1 1122 3315
M  V30 2274 1 1123 1124
M  V30 2275 1 1123 3316
M  V30 2276 1 1124 1125
M  V30 2277 1 1124 1127
M  V30 2278 1 1124 3317
M  V30 2279 2 1125 1126
M  V30 2280 1 1125 1131
M  V30 2281 1 1127 1128
M  V30 2282 1 1127 1129
M  V30 2283 1 1127 3318
M  V30 2284 1 1128 1130
M  V30 2285 1 1128 3319
M  V30 2286 1 1128 3320
M  V30 2287 1 1129 3321
M  V30 2288 1 1129 3322
M  V30 2289 1 1129 3323
M  V30 2290 1 1130 3324
M  V30 2291 1 1130 3325
M  V30 2292 1 1130 3326
M  V30 2293 1 1131 1132
M  V30 2294 1 1131 3327
M  V30 2295 1 1132 1133
M  V30 2296 1 1132 1135
M  V30 2297 1 1132 3328
M  V30 2298 2 1133 1134
M  V30 2299 1 1133 1139
M  V30 2300 1 1135 1136
M  V30 2301 1 1135 3329
M  V30 2302 1 1135 3330
M  V30 2303 1 1136 1137
M  V30 2304 1 1136 1138
M  V30 2305 1 1136 3331
M  V30 2306 1 1137 3332
M  V30 2307 1 1137 3333
M  V30 2308 1 1137 3334
M  V30 2309 1 1138 3335
M  V30 2310 1 1138 3336
M  V30 2311 1 1138 3337
M  V30 2312 1 1139 1140
M  V30 2313 1 1139 3338
M  V30 2314 1 1140 1141
M  V30 2315 1 1140 1143
M  V30 2316 1 1140 3339
M  V30 2317 2 1141 1142
M  V30 2318 1 1141 1146
M  V30 2319 1 1143 1144
M  V30 2320 1 1143 1145
M  V30 2321 1 1143 3340
M  V30 2322 1 1144 3341
M  V30 2323 1 1144 3342
M  V30 2324 1 1144 3343
M  V30 2325 1 1145 3344
M  V30 2326 1 1145 3345
M  V30 2327 1 1145 3346
M  V30 2328 1 1146 1147
M  V30 2329 1 1146 3347
M  V30 2330 1 1147 1148
M  V30 2331 1 1147 1150
M  V30 2332 1 1147 3348
M  V30 2333 2 1148 1149
M  V30 2334 1 1148 1152
M  V30 2335 1 1150 1151
M  V30 2336 1 1150 3349
M  V30 2337 1 1150 3350
M  V30 2338 1 1151 3351
M  V30 2339 1 1152 1153
M  V30 2340 1 1152 3352
M  V30 2341 1 1153 1154
M  V30 2342 1 1153 1156
M  V30 2343 1 1153 3353
M  V30 2344 2 1154 1155
M  V30 2345 1 1154 1160
M  V30 2346 1 1156 1157
M  V30 2347 1 1156 3354
M  V30 2348 1 1156 3355
M  V30 2349 2 1157 1158
M  V30 2350 1 1157 1159
M  V30 2351 1 1160 1161
M  V30 2352 1 1160 3356
M  V30 2353 1 1161 1162
M  V30 2354 1 1161 1164
M  V30 2355 1 1161 3357
M  V30 2356 2 1162 1163
M  V30 2357 1 1162 1167
M  V30 2358 1 1164 1165
M  V30 2359 1 1164 1166
M  V30 2360 1 1164 3358
M  V30 2361 1 1165 3359
M  V30 2362 1 1166 3360
M  V30 2363 1 1166 3361
M  V30 2364 1 1166 3362
M  V30 2365 1 1167 1168
M  V30 2366 1 1167 3363
M  V30 2367 1 1168 1169
M  V30 2368 1 1168 1171
M  V30 2369 1 1168 3364
M  V30 2370 2 1169 1170
M  V30 2371 1 1169 1175
M  V30 2372 1 1171 1172
M  V30 2373 1 1171 3365
M  V30 2374 1 1171 3366
M  V30 2375 1 1172 1173
M  V30 2376 1 1172 1174
M  V30 2377 1 1172 3367
M  V30 2378 1 1173 3368
M  V30 2379 1 1173 3369
M  V30 2380 1 1173 3370
M  V30 2381 1 1174 3371
M  V30 2382 1 1174 3372
M  V30 2383 1 1174 3373
M  V30 2384 1 1175 1176
M  V30 2385 1 1175 3374
M  V30 2386 1 1176 1177
M  V30 2387 1 1176 1179
M  V30 2388 1 1176 3375
M  V30 2389 2 1177 1178
M  V30 2390 1 1177 1181
M  V30 2391 1 1179 1180
M  V30 2392 1 1179 3376
M  V30 2393 1 1179 3377
M  V30 2394 1 1180 3378
M  V30 2395 1 1181 1182
M  V30 2396 1 1181 3379
M  V30 2397 1 1182 1183
M  V30 2398 1 1182 1185
M  V30 2399 1 1182 3380
M  V30 2400 2 1183 1184
M  V30 2401 1 1183 1187
M  V30 2402 1 1185 1186
M  V30 2403 1 1185 3381
M  V30 2404 1 1185 3382
M  V30 2405 1 1186 3383
M  V30 2406 1 1187 1188
M  V30 2407 1 1187 3384
M  V30 2408 1 1188 1189
M  V30 2409 1 1188 1191
M  V30 2410 1 1188 3385
M  V30 2411 2 1189 1190
M  V30 2412 1 1189 1196
M  V30 2413 1 1191 1192
M  V30 2414 1 1191 3386
M  V30 2415 1 1191 3387
M  V30 2416 1 1192 1193
M  V30 2417 1 1192 3388
M  V30 2418 1 1192 3389
M  V30 2419 1 1193 1194
M  V30 2420 1 1193 3390
M  V30 2421 1 1193 3391
M  V30 2422 1 1194 1195
M  V30 2423 1 1194 3392
M  V30 2424 1 1194 3393
M  V30 2425 1 1195 3394
M  V30 2426 1 1195 3395
M  V30 2427 1 1195 3396
M  V30 2428 1 1196 1197
M  V30 2429 1 1196 3397
M  V30 2430 1 1197 1198
M  V30 2431 1 1197 1200
M  V30 2432 1 1197 3398
M  V30 2433 2 1198 1199
M  V30 2434 1 1198 1204
M  V30 2435 1 1200 1201
M  V30 2436 1 1200 1202
M  V30 2437 1 1200 3399
M  V30 2438 1 1201 1203
M  V30 2439 1 1201 3400
M  V30 2440 1 1201 3401
M  V30 2441 1 1202 3402
M  V30 2442 1 1202 3403
M  V30 2443 1 1202 3404
M  V30 2444 1 1203 3405
M  V30 2445 1 1203 3406
M  V30 2446 1 1203 3407
M  V30 2447 1 1204 1205
M  V30 2448 1 1204 3408
M  V30 2449 1 1205 1206
M  V30 2450 1 1205 1208
M  V30 2451 1 1205 3409
M  V30 2452 2 1206 1207
M  V30 2453 1 1206 1209
M  V30 2454 1 1208 3410
M  V30 2455 1 1208 3411
M  V30 2456 1 1208 3412
M  V30 2457 1 1209 1210
M  V30 2458 1 1209 3413
M  V30 2459 1 1210 1211
M  V30 2460 1 1210 1213
M  V30 2461 1 1210 3414
M  V30 2462 2 1211 1212
M  V30 2463 1 1211 1217
M  V30 2464 1 1213 1214
M  V30 2465 1 1213 3415
M  V30 2466 1 1213 3416
M  V30 2467 2 1214 1215
M  V30 2468 1 1214 1216
M  V30 2469 1 1217 1218
M  V30 2470 1 1217 3417
M  V30 2471 1 1218 1219
M  V30 2472 1 1218 1221
M  V30 2473 1 1218 3418
M  V30 2474 2 1219 1220
M  V30 2475 1 1219 1228
M  V30 2476 1 1221 1222
M  V30 2477 1 1221 3419
M  V30 2478 1 1221 3420
M  V30 2479 2 1222 1223
M  V30 2480 1 1222 1224
M  V30 2481 1 1223 1225
M  V30 2482 1 1223 3421
M  V30 2483 2 1224 1226
M  V30 2484 1 1224 3422
M  V30 2485 2 1225 1227
M  V30 2486 1 1225 3423
M  V30 2487 1 1226 1227
M  V30 2488 1 1226 3424
M  V30 2489 1 1227 3425
M  V30 2490 1 1228 1229
M  V30 2491 1 1228 3426
M  V30 2492 1 1229 1230
M  V30 2493 1 1229 3427
M  V30 2494 1 1229 3428
M  V30 2495 2 1230 1231
M  V30 2496 1 1230 1232
M  V30 2497 1 1232 1233
M  V30 2498 1 1232 3429
M  V30 2499 1 1233 1234
M  V30 2500 1 1233 1236
M  V30 2501 1 1233 3430
M  V30 2502 2 1234 1235
M  V30 2503 1 1234 1240
M  V30 2504 1 1236 1237
M  V30 2505 1 1236 3431
M  V30 2506 1 1236 3432
M  V30 2507 1 1237 1238
M  V30 2508 1 1237 1239
M  V30 2509 1 1237 3433
M  V30 2510 1 1238 3434
M  V30 2511 1 1238 3435
M  V30 2512 1 1238 3436
M  V30 2513 1 1239 3437
M  V30 2514 1 1239 3438
M  V30 2515 1 1239 3439
M  V30 2516 1 1240 1241
M  V30 2517 1 1240 3440
M  V30 2518 1 1241 1242
M  V30 2519 1 1241 1244
M  V30 2520 1 1241 3441
M  V30 2521 2 1242 1243
M  V30 2522 1 1242 1245
M  V30 2523 1 1244 3442
M  V30 2524 1 1244 3443
M  V30 2525 1 1244 3444
M  V30 2526 1 1245 1246
M  V30 2527 1 1245 3445
M  V30 2528 1 1246 1247
M  V30 2529 1 1246 1249
M  V30 2530 1 1246 3446
M  V30 2531 2 1247 1248
M  V30 2532 1 1247 1256
M  V30 2533 1 1249 1250
M  V30 2534 1 1249 3447
M  V30 2535 1 1249 3448
M  V30 2536 1 1250 1251
M  V30 2537 1 1250 3449
M  V30 2538 1 1250 3450
M  V30 2539 1 1251 1252
M  V30 2540 1 1251 3451
M  V30 2541 1 1251 3452
M  V30 2542 1 1252 1253
M  V30 2543 1 1252 3453
M  V30 2544 1 1253 1254
M  V30 2545 2 1253 1255
M  V30 2546 1 1254 3454
M  V30 2547 1 1254 3455
M  V30 2548 1 1255 3456
M  V30 2549 1 1255 3457
M  V30 2550 1 1256 1257
M  V30 2551 1 1256 3458
M  V30 2552 1 1257 1258
M  V30 2553 1 1257 1260
M  V30 2554 1 1257 3459
M  V30 2555 2 1258 1259
M  V30 2556 1 1258 1264
M  V30 2557 1 1260 1261
M  V30 2558 1 1260 3460
M  V30 2559 1 1260 3461
M  V30 2560 1 1261 1262
M  V30 2561 1 1261 1263
M  V30 2562 1 1261 3462
M  V30 2563 1 1262 3463
M  V30 2564 1 1262 3464
M  V30 2565 1 1262 3465
M  V30 2566 1 1263 3466
M  V30 2567 1 1263 3467
M  V30 2568 1 1263 3468
M  V30 2569 1 1264 1265
M  V30 2570 1 1264 3469
M  V30 2571 1 1265 1266
M  V30 2572 1 1265 1268
M  V30 2573 1 1265 3470
M  V30 2574 2 1266 1267
M  V30 2575 1 1266 1272
M  V30 2576 1 1268 1269
M  V30 2577 1 1268 1270
M  V30 2578 1 1268 3471
M  V30 2579 1 1269 1271
M  V30 2580 1 1269 3472
M  V30 2581 1 1269 3473
M  V30 2582 1 1270 3474
M  V30 2583 1 1270 3475
M  V30 2584 1 1270 3476
M  V30 2585 1 1271 3477
M  V30 2586 1 1271 3478
M  V30 2587 1 1271 3479
M  V30 2588 1 1272 1273
M  V30 2589 1 1272 3480
M  V30 2590 1 1273 1274
M  V30 2591 1 1273 1276
M  V30 2592 1 1273 3481
M  V30 2593 2 1274 1275
M  V30 2594 1 1274 1281
M  V30 2595 1 1276 1277
M  V30 2596 1 1276 3482
M  V30 2597 1 1276 3483
M  V30 2598 1 1277 1278
M  V30 2599 1 1277 3484
M  V30 2600 1 1277 3485
M  V30 2601 2 1278 1279
M  V30 2602 1 1278 1280
M  V30 2603 1 1281 1282
M  V30 2604 1 1281 3486
M  V30 2605 1 1282 1283
M  V30 2606 1 1282 1285
M  V30 2607 1 1282 3487
M  V30 2608 2 1283 1284
M  V30 2609 1 1283 1289
M  V30 2610 1 1285 1286
M  V30 2611 1 1285 3488
M  V30 2612 1 1285 3489
M  V30 2613 2 1286 1287
M  V30 2614 1 1286 1288
M  V30 2615 1 1289 1290
M  V30 2616 1 1289 3490
M  V30 2617 1 1290 1291
M  V30 2618 1 1290 1293
M  V30 2619 1 1290 3491
M  V30 2620 2 1291 1292
M  V30 2621 1 1291 1297
M  V30 2622 1 1293 1294
M  V30 2623 1 1293 3492
M  V30 2624 1 1293 3493
M  V30 2625 2 1294 1295
M  V30 2626 1 1294 1296
M  V30 2627 1 1296 3494
M  V30 2628 1 1296 3495
M  V30 2629 1 1297 1298
M  V30 2630 1 1297 3496
M  V30 2631 1 1298 1299
M  V30 2632 1 1298 1301
M  V30 2633 1 1298 3497
M  V30 2634 2 1299 1300
M  V30 2635 1 1299 1306
M  V30 2636 1 1301 1302
M  V30 2637 1 1301 3498
M  V30 2638 1 1301 3499
M  V30 2639 1 1302 1303
M  V30 2640 1 1302 3500
M  V30 2641 1 1302 3501
M  V30 2642 2 1303 1304
M  V30 2643 1 1303 1305
M  V30 2644 1 1306 1307
M  V30 2645 1 1306 3502
M  V30 2646 1 1307 1308
M  V30 2647 1 1307 1310
M  V30 2648 1 1307 3503
M  V30 2649 2 1308 1309
M  V30 2650 1 1308 1322
M  V30 2651 1 1310 1311
M  V30 2652 1 1310 3504
M  V30 2653 1 1310 3505
M  V30 2654 2 1311 1312
M  V30 2655 1 1311 1313
M  V30 2656 1 1312 1314
M  V30 2657 1 1312 3506
M  V30 2658 2 1313 1315
M  V30 2659 1 1313 3507
M  V30 2660 2 1314 1316
M  V30 2661 1 1314 3508
M  V30 2662 1 1315 1316
M  V30 2663 1 1315 3509
M  V30 2664 1 1316 1317
M  V30 2665 1 1317 1318
M  V30 2666 2 1318 1319
M  V30 2667 1 1318 1320
M  V30 2668 1 1318 1321
M  V30 2669 1 1322 1323
M  V30 2670 1 1322 3510
M  V30 2671 1 1323 1324
M  V30 2672 1 1323 1326
M  V30 2673 1 1323 3511
M  V30 2674 2 1324 1325
M  V30 2675 1 1324 1329
M  V30 2676 1 1326 1327
M  V30 2677 1 1326 1328
M  V30 2678 1 1326 3512
M  V30 2679 1 1327 3513
M  V30 2680 1 1328 3514
M  V30 2681 1 1328 3515
M  V30 2682 1 1328 3516
M  V30 2683 1 1329 1330
M  V30 2684 1 1329 3517
M  V30 2685 1 1330 1331
M  V30 2686 1 1330 1333
M  V30 2687 1 1330 3518
M  V30 2688 2 1331 1332
M  V30 2689 1 1331 1334
M  V30 2690 1 1333 3519
M  V30 2691 1 1333 3520
M  V30 2692 1 1333 3521
M  V30 2693 1 1334 1335
M  V30 2694 1 1334 3522
M  V30 2695 1 1335 1336
M  V30 2696 1 1335 1338
M  V30 2697 1 1335 3523
M  V30 2698 2 1336 1337
M  V30 2699 1 1336 1339
M  V30 2700 1 1338 3524
M  V30 2701 1 1338 3525
M  V30 2702 1 1338 3526
M  V30 2703 1 1339 1340
M  V30 2704 1 1339 3527
M  V30 2705 1 1340 1341
M  V30 2706 1 1340 1343
M  V30 2707 1 1340 3528
M  V30 2708 2 1341 1342
M  V30 2709 1 1341 1348
M  V30 2710 1 1343 1344
M  V30 2711 1 1343 3529
M  V30 2712 1 1343 3530
M  V30 2713 1 1344 1345
M  V30 2714 1 1344 3531
M  V30 2715 1 1344 3532
M  V30 2716 2 1345 1346
M  V30 2717 1 1345 1347
M  V30 2718 1 1348 1349
M  V30 2719 1 1348 3533
M  V30 2720 1 1349 1350
M  V30 2721 1 1349 3534
M  V30 2722 1 1349 3535
M  V30 2723 2 1350 1351
M  V30 2724 1 1350 1352
M  V30 2725 1 1352 1353
M  V30 2726 1 1352 3536
M  V30 2727 1 1353 1354
M  V30 2728 1 1353 1356
M  V30 2729 1 1353 3537
M  V30 2730 2 1354 1355
M  V30 2731 1 1354 1357
M  V30 2732 1 1356 3538
M  V30 2733 1 1356 3539
M  V30 2734 1 1356 3540
M  V30 2735 1 1357 1358
M  V30 2736 1 1357 3541
M  V30 2737 1 1358 1359
M  V30 2738 1 1358 1361
M  V30 2739 1 1358 3542
M  V30 2740 2 1359 1360
M  V30 2741 1 1359 1362
M  V30 2742 1 1361 3543
M  V30 2743 1 1361 3544
M  V30 2744 1 1361 3545
M  V30 2745 1 1362 1363
M  V30 2746 1 1362 3546
M  V30 2747 1 1363 1364
M  V30 2748 1 1363 1366
M  V30 2749 1 1363 3547
M  V30 2750 2 1364 1365
M  V30 2751 1 1364 1373
M  V30 2752 1 1366 1367
M  V30 2753 1 1366 3548
M  V30 2754 1 1366 3549
M  V30 2755 2 1367 1368
M  V30 2756 1 1367 1369
M  V30 2757 1 1368 1370
M  V30 2758 1 1368 3550
M  V30 2759 2 1369 1371
M  V30 2760 1 1369 3551
M  V30 2761 2 1370 1372
M  V30 2762 1 1370 3552
M  V30 2763 1 1371 1372
M  V30 2764 1 1371 3553
M  V30 2765 1 1372 3554
M  V30 2766 1 1373 1374
M  V30 2767 1 1373 1379
M  V30 2768 1 1374 1375
M  V30 2769 1 1374 1377
M  V30 2770 1 1374 3555
M  V30 2771 2 1375 1376
M  V30 2772 1 1375 1380
M  V30 2773 1 1377 1378
M  V30 2774 1 1377 3556
M  V30 2775 1 1377 3557
M  V30 2776 1 1378 1379
M  V30 2777 1 1378 3558
M  V30 2778 1 1378 3559
M  V30 2779 1 1379 3560
M  V30 2780 1 1379 3561
M  V30 2781 1 1380 1381
M  V30 2782 1 1380 3562
M  V30 2783 1 1381 1382
M  V30 2784 1 1381 1384
M  V30 2785 1 1381 3563
M  V30 2786 2 1382 1383
M  V30 2787 1 1382 1388
M  V30 2788 1 1384 1385
M  V30 2789 1 1384 1386
M  V30 2790 1 1384 3564
M  V30 2791 1 1385 1387
M  V30 2792 1 1385 3565
M  V30 2793 1 1385 3566
M  V30 2794 1 1386 3567
M  V30 2795 1 1386 3568
M  V30 2796 1 1386 3569
M  V30 2797 1 1387 3570
M  V30 2798 1 1387 3571
M  V30 2799 1 1387 3572
M  V30 2800 1 1388 1389
M  V30 2801 1 1388 3573
M  V30 2802 1 1389 1390
M  V30 2803 1 1389 1392
M  V30 2804 1 1389 3574
M  V30 2805 2 1390 1391
M  V30 2806 1 1390 1397
M  V30 2807 1 1392 1393
M  V30 2808 1 1392 3575
M  V30 2809 1 1392 3576
M  V30 2810 1 1393 1394
M  V30 2811 1 1393 3577
M  V30 2812 1 1393 3578
M  V30 2813 1 1394 1395
M  V30 2814 1 1394 3579
M  V30 2815 1 1394 3580
M  V30 2816 1 1395 1396
M  V30 2817 1 1395 3581
M  V30 2818 1 1395 3582
M  V30 2819 1 1396 3583
M  V30 2820 1 1396 3584
M  V30 2821 1 1396 3585
M  V30 2822 1 1397 1398
M  V30 2823 1 1397 3586
M  V30 2824 1 1398 1399
M  V30 2825 1 1398 1401
M  V30 2826 1 1398 3587
M  V30 2827 2 1399 1400
M  V30 2828 1 1399 1411
M  V30 2829 1 1401 1402
M  V30 2830 1 1401 3588
M  V30 2831 1 1401 3589
M  V30 2832 2 1402 1403
M  V30 2833 1 1402 1404
M  V30 2834 1 1403 1405
M  V30 2835 1 1403 3590
M  V30 2836 2 1404 1406
M  V30 2837 1 1404 1407
M  V30 2838 1 1405 1406
M  V30 2839 1 1405 3591
M  V30 2840 1 1406 1408
M  V30 2841 2 1407 1409
M  V30 2842 1 1407 3592
M  V30 2843 2 1408 1410
M  V30 2844 1 1408 3593
M  V30 2845 1 1409 1410
M  V30 2846 1 1409 3594
M  V30 2847 1 1410 3595
M  V30 2848 1 1411 1412
M  V30 2849 1 1411 3596
M  V30 2850 1 1412 1413
M  V30 2851 1 1412 1415
M  V30 2852 1 1412 3597
M  V30 2853 2 1413 1414
M  V30 2854 1 1413 1418
M  V30 2855 1 1415 1416
M  V30 2856 1 1415 1417
M  V30 2857 1 1415 3598
M  V30 2858 1 1416 3599
M  V30 2859 1 1417 3600
M  V30 2860 1 1417 3601
M  V30 2861 1 1417 3602
M  V30 2862 1 1418 1419
M  V30 2863 1 1418 3603
M  V30 2864 1 1419 1420
M  V30 2865 1 1419 1422
M  V30 2866 1 1419 3604
M  V30 2867 2 1420 1421
M  V30 2868 1 1420 1423
M  V30 2869 1 1422 3605
M  V30 2870 1 1422 3606
M  V30 2871 1 1422 3607
M  V30 2872 1 1423 1424
M  V30 2873 1 1423 1429
M  V30 2874 1 1424 1425
M  V30 2875 1 1424 1427
M  V30 2876 1 1424 3608
M  V30 2877 2 1425 1426
M  V30 2878 1 1425 1430
M  V30 2879 1 1427 1428
M  V30 2880 1 1427 3609
M  V30 2881 1 1427 3610
M  V30 2882 1 1428 1429
M  V30 2883 1 1428 3611
M  V30 2884 1 1428 3612
M  V30 2885 1 1429 3613
M  V30 2886 1 1429 3614
M  V30 2887 1 1430 1431
M  V30 2888 1 1430 3615
M  V30 2889 1 1431 1432
M  V30 2890 1 1431 1434
M  V30 2891 1 1431 3616
M  V30 2892 2 1432 1433
M  V30 2893 1 1432 1439
M  V30 2894 1 1434 1435
M  V30 2895 1 1434 3617
M  V30 2896 1 1434 3618
M  V30 2897 1 1435 1436
M  V30 2898 1 1435 3619
M  V30 2899 1 1435 3620
M  V30 2900 2 1436 1437
M  V30 2901 1 1436 1438
M  V30 2902 1 1439 1440
M  V30 2903 1 1439 3621
M  V30 2904 1 1440 1441
M  V30 2905 1 1440 1443
M  V30 2906 1 1440 3622
M  V30 2907 2 1441 1442
M  V30 2908 1 1441 1444
M  V30 2909 1 1443 3623
M  V30 2910 1 1443 3624
M  V30 2911 1 1443 3625
M  V30 2912 1 1444 1445
M  V30 2913 1 1444 3626
M  V30 2914 1 1445 1446
M  V30 2915 1 1445 1448
M  V30 2916 1 1445 3627
M  V30 2917 2 1446 1447
M  V30 2918 1 1446 1452
M  V30 2919 1 1448 1449
M  V30 2920 1 1448 1450
M  V30 2921 1 1448 3628
M  V30 2922 1 1449 1451
M  V30 2923 1 1449 3629
M  V30 2924 1 1449 3630
M  V30 2925 1 1450 3631
M  V30 2926 1 1450 3632
M  V30 2927 1 1450 3633
M  V30 2928 1 1451 3634
M  V30 2929 1 1451 3635
M  V30 2930 1 1451 3636
M  V30 2931 1 1452 1453
M  V30 2932 1 1452 3637
M  V30 2933 1 1453 1454
M  V30 2934 1 1453 1456
M  V30 2935 1 1453 3638
M  V30 2936 2 1454 1455
M  V30 2937 1 1454 1460
M  V30 2938 1 1456 1457
M  V30 2939 1 1456 3639
M  V30 2940 1 1456 3640
M  V30 2941 2 1457 1458
M  V30 2942 1 1457 1459
M  V30 2943 1 1459 3641
M  V30 2944 1 1459 3642
M  V30 2945 1 1460 1461
M  V30 2946 1 1460 3643
M  V30 2947 1 1461 1462
M  V30 2948 1 1461 1464
M  V30 2949 1 1461 3644
M  V30 2950 2 1462 1463
M  V30 2951 1 1462 1472
M  V30 2952 1 1464 1465
M  V30 2953 1 1464 3645
M  V30 2954 1 1464 3646
M  V30 2955 2 1465 1466
M  V30 2956 1 1465 1467
M  V30 2957 1 1466 1468
M  V30 2958 1 1466 3647
M  V30 2959 2 1467 1469
M  V30 2960 1 1467 3648
M  V30 2961 2 1468 1470
M  V30 2962 1 1468 3649
M  V30 2963 1 1469 1470
M  V30 2964 1 1469 3650
M  V30 2965 1 1470 1471
M  V30 2966 1 1471 3651
M  V30 2967 1 1472 1473
M  V30 2968 1 1472 3652
M  V30 2969 1 1473 1474
M  V30 2970 1 1473 3653
M  V30 2971 1 1473 3654
M  V30 2972 2 1474 1475
M  V30 2973 1 1474 1476
M  V30 2974 1 1476 1477
M  V30 2975 1 1476 3655
M  V30 2976 1 1477 1478
M  V30 2977 1 1477 1480
M  V30 2978 1 1477 3656
M  V30 2979 2 1478 1479
M  V30 2980 1 1478 1483
M  V30 2981 1 1480 1481
M  V30 2982 1 1480 1482
M  V30 2983 1 1480 3657
M  V30 2984 1 1481 3658
M  V30 2985 1 1482 3659
M  V30 2986 1 1482 3660
M  V30 2987 1 1482 3661
M  V30 2988 1 1483 1484
M  V30 2989 1 1483 3662
M  V30 2990 1 1484 1485
M  V30 2991 1 1484 1487
M  V30 2992 1 1484 3663
M  V30 2993 2 1485 1486
M  V30 2994 1 1485 1494
M  V30 2995 1 1487 1488
M  V30 2996 1 1487 3664
M  V30 2997 1 1487 3665
M  V30 2998 2 1488 1489
M  V30 2999 1 1488 1490
M  V30 3000 1 1489 1491
M  V30 3001 1 1489 3666
M  V30 3002 2 1490 1492
M  V30 3003 1 1490 3667
M  V30 3004 2 1491 1493
M  V30 3005 1 1491 3668
M  V30 3006 1 1492 1493
M  V30 3007 1 1492 3669
M  V30 3008 1 1493 3670
M  V30 3009 1 1494 1495
M  V30 3010 1 1494 3671
M  V30 3011 1 1495 1496
M  V30 3012 1 1495 1498
M  V30 3013 1 1495 3672
M  V30 3014 2 1496 1497
M  V30 3015 1 1496 1501
M  V30 3016 1 1498 1499
M  V30 3017 1 1498 1500
M  V30 3018 1 1498 3673
M  V30 3019 1 1499 3674
M  V30 3020 1 1500 3675
M  V30 3021 1 1500 3676
M  V30 3022 1 1500 3677
M  V30 3023 1 1501 1502
M  V30 3024 1 1501 3678
M  V30 3025 1 1502 1503
M  V30 3026 1 1502 1505
M  V30 3027 1 1502 3679
M  V30 3028 2 1503 1504
M  V30 3029 1 1503 1509
M  V30 3030 1 1505 1506
M  V30 3031 1 1505 1507
M  V30 3032 1 1505 3680
M  V30 3033 1 1506 1508
M  V30 3034 1 1506 3681
M  V30 3035 1 1506 3682
M  V30 3036 1 1507 3683
M  V30 3037 1 1507 3684
M  V30 3038 1 1507 3685
M  V30 3039 1 1508 3686
M  V30 3040 1 1508 3687
M  V30 3041 1 1508 3688
M  V30 3042 1 1509 1510
M  V30 3043 1 1509 3689
M  V30 3044 1 1510 1511
M  V30 3045 1 1510 1513
M  V30 3046 1 1510 3690
M  V30 3047 2 1511 1512
M  V30 3048 1 1511 1518
M  V30 3049 1 1513 1514
M  V30 3050 1 1513 3691
M  V30 3051 1 1513 3692
M  V30 3052 1 1514 1515
M  V30 3053 1 1514 3693
M  V30 3054 1 1514 3694
M  V30 3055 1 1515 1516
M  V30 3056 1 1515 3695
M  V30 3057 1 1515 3696
M  V30 3058 1 1516 1517
M  V30 3059 1 1516 3697
M  V30 3060 1 1516 3698
M  V30 3061 1 1517 3699
M  V30 3062 1 1517 3700
M  V30 3063 1 1517 3701
M  V30 3064 1 1518 1519
M  V30 3065 1 1518 3702
M  V30 3066 1 1519 1520
M  V30 3067 1 1519 1522
M  V30 3068 1 1519 3703
M  V30 3069 2 1520 1521
M  V30 3070 1 1520 1524
M  V30 3071 1 1522 1523
M  V30 3072 1 1522 3704
M  V30 3073 1 1522 3705
M  V30 3074 1 1523 3706
M  V30 3075 1 1524 1525
M  V30 3076 1 1524 3707
M  V30 3077 1 1525 1526
M  V30 3078 1 1525 1528
M  V30 3079 1 1525 3708
M  V30 3080 2 1526 1527
M  V30 3081 1 1526 1532
M  V30 3082 1 1528 1529
M  V30 3083 1 1528 3709
M  V30 3084 1 1528 3710
M  V30 3085 2 1529 1530
M  V30 3086 1 1529 1531
M  V30 3087 1 1532 1533
M  V30 3088 1 1532 3711
M  V30 3089 1 1533 1534
M  V30 3090 1 1533 1536
M  V30 3091 1 1533 3712
M  V30 3092 2 1534 1535
M  V30 3093 1 1534 1539
M  V30 3094 1 1536 1537
M  V30 3095 1 1536 1538
M  V30 3096 1 1536 3713
M  V30 3097 1 1537 3714
M  V30 3098 1 1537 3715
M  V30 3099 1 1537 3716
M  V30 3100 1 1538 3717
M  V30 3101 1 1538 3718
M  V30 3102 1 1538 3719
M  V30 3103 1 1539 1540
M  V30 3104 1 1539 3720
M  V30 3105 1 1540 1541
M  V30 3106 1 1540 1543
M  V30 3107 1 1540 3721
M  V30 3108 2 1541 1542
M  V30 3109 1 1541 1553
M  V30 3110 1 1543 1544
M  V30 3111 1 1543 3722
M  V30 3112 1 1543 3723
M  V30 3113 2 1544 1545
M  V30 3114 1 1544 1546
M  V30 3115 1 1545 1547
M  V30 3116 1 1545 3724
M  V30 3117 2 1546 1548
M  V30 3118 1 1546 1549
M  V30 3119 1 1547 1548
M  V30 3120 1 1547 3725
M  V30 3121 1 1548 1550
M  V30 3122 2 1549 1551
M  V30 3123 1 1549 3726
M  V30 3124 2 1550 1552
M  V30 3125 1 1550 3727
M  V30 3126 1 1551 1552
M  V30 3127 1 1551 3728
M  V30 3128 1 1552 3729
M  V30 3129 1 1553 1554
M  V30 3130 1 1553 3730
M  V30 3131 1 1554 1555
M  V30 3132 1 1554 1557
M  V30 3133 1 1554 3731
M  V30 3134 2 1555 1556
M  V30 3135 1 1555 1559
M  V30 3136 1 1557 1558
M  V30 3137 1 1557 3732
M  V30 3138 1 1557 3733
M  V30 3139 1 1558 3734
M  V30 3140 1 1559 1560
M  V30 3141 1 1559 3735
M  V30 3142 1 1560 1561
M  V30 3143 1 1560 1563
M  V30 3144 1 1560 3736
M  V30 3145 2 1561 1562
M  V30 3146 1 1561 1570
M  V30 3147 1 1563 1564
M  V30 3148 1 1563 3737
M  V30 3149 1 1563 3738
M  V30 3150 2 1564 1565
M  V30 3151 1 1564 1566
M  V30 3152 1 1565 1567
M  V30 3153 1 1565 3739
M  V30 3154 2 1566 1568
M  V30 3155 1 1566 3740
M  V30 3156 2 1567 1569
M  V30 3157 1 1567 3741
M  V30 3158 1 1568 1569
M  V30 3159 1 1568 3742
M  V30 3160 1 1569 3743
M  V30 3161 1 1570 1571
M  V30 3162 1 1570 3744
M  V30 3163 1 1571 1572
M  V30 3164 1 1571 3745
M  V30 3165 1 1571 3746
M  V30 3166 2 1572 1573
M  V30 3167 1 1572 1574
M  V30 3168 1 1574 1575
M  V30 3169 1 1574 3747
M  V30 3170 1 1575 1576
M  V30 3171 1 1575 1578
M  V30 3172 1 1575 3748
M  V30 3173 2 1576 1577
M  V30 3174 1 1576 1582
M  V30 3175 1 1578 1579
M  V30 3176 1 1578 1580
M  V30 3177 1 1578 3749
M  V30 3178 1 1579 1581
M  V30 3179 1 1579 3750
M  V30 3180 1 1579 3751
M  V30 3181 1 1580 3752
M  V30 3182 1 1580 3753
M  V30 3183 1 1580 3754
M  V30 3184 1 1581 3755
M  V30 3185 1 1581 3756
M  V30 3186 1 1581 3757
M  V30 3187 1 1582 1583
M  V30 3188 1 1582 3758
M  V30 3189 1 1583 1584
M  V30 3190 1 1583 1586
M  V30 3191 1 1583 3759
M  V30 3192 2 1584 1585
M  V30 3193 1 1584 1590
M  V30 3194 1 1586 1587
M  V30 3195 1 1586 3760
M  V30 3196 1 1586 3761
M  V30 3197 1 1587 1588
M  V30 3198 1 1587 1589
M  V30 3199 1 1587 3762
M  V30 3200 1 1588 3763
M  V30 3201 1 1588 3764
M  V30 3202 1 1588 3765
M  V30 3203 1 1589 3766
M  V30 3204 1 1589 3767
M  V30 3205 1 1589 3768
M  V30 3206 1 1590 1591
M  V30 3207 1 1590 3769
M  V30 3208 1 1591 1592
M  V30 3209 1 1591 1594
M  V30 3210 1 1591 3770
M  V30 3211 2 1592 1593
M  V30 3212 1 1592 1598
M  V30 3213 1 1594 1595
M  V30 3214 1 1594 3771
M  V30 3215 1 1594 3772
M  V30 3216 1 1595 1596
M  V30 3217 1 1595 1597
M  V30 3218 1 1595 3773
M  V30 3219 1 1596 3774
M  V30 3220 1 1596 3775
M  V30 3221 1 1596 3776
M  V30 3222 1 1597 3777
M  V30 3223 1 1597 3778
M  V30 3224 1 1597 3779
M  V30 3225 1 1598 1599
M  V30 3226 1 1598 3780
M  V30 3227 1 1599 1600
M  V30 3228 1 1599 1602
M  V30 3229 1 1599 3781
M  V30 3230 2 1600 1601
M  V30 3231 1 1600 1605
M  V30 3232 1 1602 1603
M  V30 3233 1 1602 1604
M  V30 3234 1 1602 3782
M  V30 3235 1 1603 3783
M  V30 3236 1 1604 3784
M  V30 3237 1 1604 3785
M  V30 3238 1 1604 3786
M  V30 3239 1 1605 1606
M  V30 3240 1 1605 3787
M  V30 3241 1 1606 1607
M  V30 3242 1 1606 1609
M  V30 3243 1 1606 3788
M  V30 3244 2 1607 1608
M  V30 3245 1 1607 1614
M  V30 3246 1 1609 1610
M  V30 3247 1 1609 3789
M  V30 3248 1 1609 3790
M  V30 3249 1 1610 1611
M  V30 3250 1 1610 3791
M  V30 3251 1 1610 3792
M  V30 3252 2 1611 1612
M  V30 3253 1 1611 1613
M  V30 3254 1 1614 1615
M  V30 3255 1 1614 3793
M  V30 3256 1 1615 1616
M  V30 3257 1 1615 1618
M  V30 3258 1 1615 3794
M  V30 3259 2 1616 1617
M  V30 3260 1 1616 1622
M  V30 3261 1 1618 1619
M  V30 3262 1 1618 1620
M  V30 3263 1 1618 3795
M  V30 3264 1 1619 1621
M  V30 3265 1 1619 3796
M  V30 3266 1 1619 3797
M  V30 3267 1 1620 3798
M  V30 3268 1 1620 3799
M  V30 3269 1 1620 3800
M  V30 3270 1 1621 3801
M  V30 3271 1 1621 3802
M  V30 3272 1 1621 3803
M  V30 3273 1 1622 1623
M  V30 3274 1 1622 3804
M  V30 3275 1 1623 1624
M  V30 3276 1 1623 1626
M  V30 3277 1 1623 3805
M  V30 3278 2 1624 1625
M  V30 3279 1 1624 1629
M  V30 3280 1 1626 1627
M  V30 3281 1 1626 1628
M  V30 3282 1 1626 3806
M  V30 3283 1 1627 3807
M  V30 3284 1 1627 3808
M  V30 3285 1 1627 3809
M  V30 3286 1 1628 3810
M  V30 3287 1 1628 3811
M  V30 3288 1 1628 3812
M  V30 3289 1 1629 1630
M  V30 3290 1 1629 3813
M  V30 3291 1 1630 1631
M  V30 3292 1 1630 1633
M  V30 3293 1 1630 3814
M  V30 3294 2 1631 1632
M  V30 3295 1 1631 1636
M  V30 3296 1 1633 1634
M  V30 3297 1 1633 1635
M  V30 3298 1 1633 3815
M  V30 3299 1 1634 3816
M  V30 3300 1 1635 3817
M  V30 3301 1 1635 3818
M  V30 3302 1 1635 3819
M  V30 3303 1 1636 1637
M  V30 3304 1 1636 3820
M  V30 3305 1 1637 1638
M  V30 3306 1 1637 1640
M  V30 3307 1 1637 3821
M  V30 3308 2 1638 1639
M  V30 3309 1 1638 1646
M  V30 3310 1 1640 1641
M  V30 3311 1 1640 3822
M  V30 3312 1 1640 3823
M  V30 3313 1 1641 1642
M  V30 3314 2 1641 1643
M  V30 3315 1 1642 1644
M  V30 3316 1 1642 3824
M  V30 3317 1 1643 1645
M  V30 3318 1 1643 3825
M  V30 3319 2 1644 1645
M  V30 3320 1 1644 3826
M  V30 3321 1 1646 1647
M  V30 3322 1 1646 3827
M  V30 3323 1 1647 1648
M  V30 3324 1 1647 3828
M  V30 3325 1 1647 3829
M  V30 3326 2 1648 1649
M  V30 3327 1 1648 1650
M  V30 3328 1 1650 1651
M  V30 3329 1 1650 3830
M  V30 3330 1 1651 1652
M  V30 3331 1 1651 1654
M  V30 3332 1 1651 3831
M  V30 3333 2 1652 1653
M  V30 3334 1 1652 1661
M  V30 3335 1 1654 1655
M  V30 3336 1 1654 3832
M  V30 3337 1 1654 3833
M  V30 3338 1 1655 1656
M  V30 3339 1 1655 3834
M  V30 3340 1 1655 3835
M  V30 3341 1 1656 1657
M  V30 3342 1 1656 3836
M  V30 3343 1 1656 3837
M  V30 3344 1 1657 1658
M  V30 3345 1 1657 3838
M  V30 3346 1 1658 1659
M  V30 3347 2 1658 1660
M  V30 3348 1 1659 3839
M  V30 3349 1 1659 3840
M  V30 3350 1 1660 3841
M  V30 3351 1 1660 3842
M  V30 3352 1 1661 1662
M  V30 3353 1 1661 3843
M  V30 3354 1 1662 1663
M  V30 3355 1 1662 1665
M  V30 3356 1 1662 3844
M  V30 3357 2 1663 1664
M  V30 3358 1 1663 1669
M  V30 3359 1 1665 1666
M  V30 3360 1 1665 1667
M  V30 3361 1 1665 3845
M  V30 3362 1 1666 1668
M  V30 3363 1 1666 3846
M  V30 3364 1 1666 3847
M  V30 3365 1 1667 3848
M  V30 3366 1 1667 3849
M  V30 3367 1 1667 3850
M  V30 3368 1 1668 3851
M  V30 3369 1 1668 3852
M  V30 3370 1 1668 3853
M  V30 3371 1 1669 1670
M  V30 3372 1 1669 1675
M  V30 3373 1 1670 1671
M  V30 3374 1 1670 1673
M  V30 3375 1 1670 3854
M  V30 3376 2 1671 1672
M  V30 3377 1 1671 1676
M  V30 3378 1 1673 1674
M  V30 3379 1 1673 3855
M  V30 3380 1 1673 3856
M  V30 3381 1 1674 1675
M  V30 3382 1 1674 3857
M  V30 3383 1 1674 3858
M  V30 3384 1 1675 3859
M  V30 3385 1 1675 3860
M  V30 3386 1 1676 1677
M  V30 3387 1 1676 3861
M  V30 3388 1 1677 1678
M  V30 3389 1 1677 1680
M  V30 3390 1 1677 3862
M  V30 3391 2 1678 1679
M  V30 3392 1 1678 1688
M  V30 3393 1 1680 1681
M  V30 3394 1 1680 3863
M  V30 3395 1 1680 3864
M  V30 3396 2 1681 1682
M  V30 3397 1 1681 1683
M  V30 3398 1 1682 1684
M  V30 3399 1 1682 3865
M  V30 3400 2 1683 1685
M  V30 3401 1 1683 3866
M  V30 3402 2 1684 1686
M  V30 3403 1 1684 3867
M  V30 3404 1 1685 1686
M  V30 3405 1 1685 3868
M  V30 3406 1 1686 1687
M  V30 3407 1 1687 3869
M  V30 3408 1 1688 1689
M  V30 3409 1 1688 1694
M  V30 3410 1 1689 1690
M  V30 3411 1 1689 1692
M  V30 3412 1 1689 3870
M  V30 3413 2 1690 1691
M  V30 3414 1 1690 1695
M  V30 3415 1 1692 1693
M  V30 3416 1 1692 3871
M  V30 3417 1 1692 3872
M  V30 3418 1 1693 1694
M  V30 3419 1 1693 3873
M  V30 3420 1 1693 3874
M  V30 3421 1 1694 3875
M  V30 3422 1 1694 3876
M  V30 3423 1 1695 1696
M  V30 3424 1 1695 3877
M  V30 3425 1 1696 1697
M  V30 3426 1 1696 3878
M  V30 3427 1 1696 3879
M  V30 3428 2 1697 1698
M  V30 3429 1 1697 1699
M  V30 3430 1 1699 1700
M  V30 3431 1 1699 3880
M  V30 3432 1 1700 1701
M  V30 3433 1 1700 1703
M  V30 3434 1 1700 3881
M  V30 3435 2 1701 1702
M  V30 3436 1 1701 1707
M  V30 3437 1 1703 1704
M  V30 3438 1 1703 3882
M  V30 3439 1 1703 3883
M  V30 3440 1 1704 1705
M  V30 3441 1 1704 3884
M  V30 3442 1 1704 3885
M  V30 3443 1 1705 1706
M  V30 3444 1 1706 3886
M  V30 3445 1 1706 3887
M  V30 3446 1 1706 3888
M  V30 3447 1 1707 1708
M  V30 3448 1 1707 3889
M  V30 3449 1 1708 1709
M  V30 3450 1 1708 1711
M  V30 3451 1 1708 3890
M  V30 3452 2 1709 1710
M  V30 3453 1 1709 1714
M  V30 3454 1 1711 1712
M  V30 3455 1 1711 1713
M  V30 3456 1 1711 3891
M  V30 3457 1 1712 3892
M  V30 3458 1 1713 3893
M  V30 3459 1 1713 3894
M  V30 3460 1 1713 3895
M  V30 3461 1 1714 1715
M  V30 3462 1 1714 3896
M  V30 3463 1 1715 1716
M  V30 3464 1 1715 1718
M  V30 3465 1 1715 3897
M  V30 3466 2 1716 1717
M  V30 3467 1 1716 1722
M  V30 3468 1 1718 1719
M  V30 3469 1 1718 3898
M  V30 3470 1 1718 3899
M  V30 3471 2 1719 1720
M  V30 3472 1 1719 1721
M  V30 3473 1 1721 3900
M  V30 3474 1 1721 3901
M  V30 3475 1 1722 1723
M  V30 3476 1 1722 1728
M  V30 3477 1 1723 1724
M  V30 3478 1 1723 1726
M  V30 3479 1 1723 3902
M  V30 3480 2 1724 1725
M  V30 3481 1 1724 1729
M  V30 3482 1 1726 1727
M  V30 3483 1 1726 3903
M  V30 3484 1 1726 3904
M  V30 3485 1 1727 1728
M  V30 3486 1 1727 3905
M  V30 3487 1 1727 3906
M  V30 3488 1 1728 3907
M  V30 3489 1 1728 3908
M  V30 3490 1 1729 1730
M  V30 3491 1 1729 3909
M  V30 3492 1 1730 1731
M  V30 3493 1 1730 1733
M  V30 3494 1 1730 3910
M  V30 3495 2 1731 1732
M  V30 3496 1 1731 1738
M  V30 3497 1 1733 1734
M  V30 3498 1 1733 3911
M  V30 3499 1 1733 3912
M  V30 3500 1 1734 1735
M  V30 3501 1 1734 3913
M  V30 3502 1 1734 3914
M  V30 3503 2 1735 1736
M  V30 3504 1 1735 1737
M  V30 3505 1 1738 1739
M  V30 3506 1 1738 3915
M  V30 3507 1 1739 1740
M  V30 3508 1 1739 1742
M  V30 3509 1 1739 3916
M  V30 3510 2 1740 1741
M  V30 3511 1 1740 1745
M  V30 3512 1 1742 1743
M  V30 3513 1 1742 1744
M  V30 3514 1 1742 3917
M  V30 3515 1 1743 3918
M  V30 3516 1 1743 3919
M  V30 3517 1 1743 3920
M  V30 3518 1 1744 3921
M  V30 3519 1 1744 3922
M  V30 3520 1 1744 3923
M  V30 3521 1 1745 1746
M  V30 3522 1 1745 3924
M  V30 3523 1 1746 1747
M  V30 3524 1 1746 1749
M  V30 3525 1 1746 3925
M  V30 3526 2 1747 1748
M  V30 3527 1 1747 1753
M  V30 3528 1 1749 1750
M  V30 3529 1 1749 1751
M  V30 3530 1 1749 3926
M  V30 3531 1 1750 1752
M  V30 3532 1 1750 3927
M  V30 3533 1 1750 3928
M  V30 3534 1 1751 3929
M  V30 3535 1 1751 3930
M  V30 3536 1 1751 3931
M  V30 3537 1 1752 3932
M  V30 3538 1 1752 3933
M  V30 3539 1 1752 3934
M  V30 3540 1 1753 1754
M  V30 3541 1 1753 3935
M  V30 3542 1 1754 1755
M  V30 3543 1 1754 1757
M  V30 3544 1 1754 3936
M  V30 3545 2 1755 1756
M  V30 3546 1 1755 1758
M  V30 3547 1 1757 3937
M  V30 3548 1 1757 3938
M  V30 3549 1 1757 3939
M  V30 3550 1 1758 1759
M  V30 3551 1 1758 3940
M  V30 3552 1 1759 1760
M  V30 3553 1 1759 1762
M  V30 3554 1 1759 3941
M  V30 3555 2 1760 1761
M  V30 3556 1 1760 1766
M  V30 3557 1 1762 1763
M  V30 3558 1 1762 3942
M  V30 3559 1 1762 3943
M  V30 3560 2 1763 1764
M  V30 3561 1 1763 1765
M  V30 3562 1 1765 3944
M  V30 3563 1 1765 3945
M  V30 3564 1 1766 1767
M  V30 3565 1 1766 3946
M  V30 3566 1 1767 1768
M  V30 3567 1 1767 1770
M  V30 3568 1 1767 3947
M  V30 3569 2 1768 1769
M  V30 3570 1 1768 1774
M  V30 3571 1 1770 1771
M  V30 3572 1 1770 3948
M  V30 3573 1 1770 3949
M  V30 3574 1 1771 1772
M  V30 3575 1 1771 1773
M  V30 3576 1 1771 3950
M  V30 3577 1 1772 3951
M  V30 3578 1 1772 3952
M  V30 3579 1 1772 3953
M  V30 3580 1 1773 3954
M  V30 3581 1 1773 3955
M  V30 3582 1 1773 3956
M  V30 3583 1 1774 1775
M  V30 3584 1 1774 3957
M  V30 3585 1 1775 1776
M  V30 3586 1 1775 1778
M  V30 3587 1 1775 3958
M  V30 3588 2 1776 1777
M  V30 3589 1 1776 1783
M  V30 3590 1 1778 1779
M  V30 3591 1 1778 3959
M  V30 3592 1 1778 3960
M  V30 3593 1 1779 1780
M  V30 3594 1 1779 3961
M  V30 3595 1 1779 3962
M  V30 3596 2 1780 1781
M  V30 3597 1 1780 1782
M  V30 3598 1 1783 1784
M  V30 3599 1 1783 3963
M  V30 3600 1 1784 1785
M  V30 3601 1 1784 1787
M  V30 3602 1 1784 3964
M  V30 3603 2 1785 1786
M  V30 3604 1 1785 1794
M  V30 3605 1 1787 1788
M  V30 3606 1 1787 3965
M  V30 3607 1 1787 3966
M  V30 3608 1 1788 1789
M  V30 3609 1 1788 3967
M  V30 3610 1 1788 3968
M  V30 3611 1 1789 1790
M  V30 3612 1 1789 3969
M  V30 3613 1 1789 3970
M  V30 3614 1 1790 1791
M  V30 3615 1 1790 3971
M  V30 3616 1 1791 1792
M  V30 3617 2 1791 1793
M  V30 3618 1 1792 3972
M  V30 3619 1 1792 3973
M  V30 3620 1 1793 3974
M  V30 3621 1 1793 3975
M  V30 3622 1 1794 1795
M  V30 3623 1 1794 3976
M  V30 3624 1 1795 1796
M  V30 3625 1 1795 3977
M  V30 3626 1 1795 3978
M  V30 3627 2 1796 1797
M  V30 3628 1 1796 1798
M  V30 3629 1 1798 1799
M  V30 3630 1 1798 3979
M  V30 3631 1 1799 1800
M  V30 3632 1 1799 1802
M  V30 3633 1 1799 3980
M  V30 3634 2 1800 1801
M  V30 3635 1 1800 1810
M  V30 3636 1 1802 1803
M  V30 3637 1 1802 3981
M  V30 3638 1 1802 3982
M  V30 3639 2 1803 1804
M  V30 3640 1 1803 1805
M  V30 3641 1 1804 1806
M  V30 3642 1 1804 3983
M  V30 3643 2 1805 1807
M  V30 3644 1 1805 3984
M  V30 3645 2 1806 1808
M  V30 3646 1 1806 3985
M  V30 3647 1 1807 1808
M  V30 3648 1 1807 3986
M  V30 3649 1 1808 1809
M  V30 3650 1 1809 3987
M  V30 3651 1 1810 1811
M  V30 3652 1 1810 3988
M  V30 3653 1 1811 1812
M  V30 3654 1 1811 1814
M  V30 3655 1 1811 3989
M  V30 3656 2 1812 1813
M  V30 3657 1 1812 1821
M  V30 3658 1 1814 1815
M  V30 3659 1 1814 3990
M  V30 3660 1 1814 3991
M  V30 3661 1 1815 1816
M  V30 3662 1 1815 3992
M  V30 3663 1 1815 3993
M  V30 3664 1 1816 1817
M  V30 3665 1 1816 3994
M  V30 3666 1 1816 3995
M  V30 3667 1 1817 1818
M  V30 3668 1 1817 3996
M  V30 3669 1 1818 1819
M  V30 3670 2 1818 1820
M  V30 3671 1 1819 3997
M  V30 3672 1 1819 3998
M  V30 3673 1 1820 3999
M  V30 3674 1 1820 4000
M  V30 3675 1 1821 1822
M  V30 3676 1 1821 4001
M  V30 3677 1 1822 1823
M  V30 3678 1 1822 1825
M  V30 3679 1 1822 4002
M  V30 3680 2 1823 1824
M  V30 3681 1 1823 1829
M  V30 3682 1 1825 1826
M  V30 3683 1 1825 4003
M  V30 3684 1 1825 4004
M  V30 3685 1 1826 1827
M  V30 3686 1 1826 4005
M  V30 3687 1 1826 4006
M  V30 3688 1 1827 1828
M  V30 3689 1 1828 4007
M  V30 3690 1 1828 4008
M  V30 3691 1 1828 4009
M  V30 3692 1 1829 1830
M  V30 3693 1 1829 4010
M  V30 3694 1 1830 1831
M  V30 3695 1 1830 1833
M  V30 3696 1 1830 4011
M  V30 3697 2 1831 1832
M  V30 3698 1 1831 1836
M  V30 3699 1 1833 1834
M  V30 3700 1 1833 1835
M  V30 3701 1 1833 4012
M  V30 3702 1 1834 4013
M  V30 3703 1 1834 4014
M  V30 3704 1 1834 4015
M  V30 3705 1 1835 4016
M  V30 3706 1 1835 4017
M  V30 3707 1 1835 4018
M  V30 3708 1 1836 1837
M  V30 3709 1 1836 4019
M  V30 3710 1 1837 1838
M  V30 3711 1 1837 1840
M  V30 3712 1 1837 4020
M  V30 3713 2 1838 1839
M  V30 3714 1 1838 1847
M  V30 3715 1 1840 1841
M  V30 3716 1 1840 4021
M  V30 3717 1 1840 4022
M  V30 3718 1 1841 1842
M  V30 3719 1 1841 4023
M  V30 3720 1 1841 4024
M  V30 3721 1 1842 1843
M  V30 3722 1 1842 4025
M  V30 3723 1 1842 4026
M  V30 3724 1 1843 1844
M  V30 3725 1 1843 4027
M  V30 3726 1 1844 1845
M  V30 3727 2 1844 1846
M  V30 3728 1 1845 4028
M  V30 3729 1 1845 4029
M  V30 3730 1 1846 4030
M  V30 3731 1 1846 4031
M  V30 3732 1 1847 1848
M  V30 3733 1 1847 1853
M  V30 3734 1 1848 1849
M  V30 3735 1 1848 1851
M  V30 3736 1 1848 4032
M  V30 3737 2 1849 1850
M  V30 3738 1 1849 1854
M  V30 3739 1 1851 1852
M  V30 3740 1 1851 4033
M  V30 3741 1 1851 4034
M  V30 3742 1 1852 1853
M  V30 3743 1 1852 4035
M  V30 3744 1 1852 4036
M  V30 3745 1 1853 4037
M  V30 3746 1 1853 4038
M  V30 3747 1 1854 1855
M  V30 3748 1 1854 4039
M  V30 3749 1 1855 1856
M  V30 3750 1 1855 1858
M  V30 3751 1 1855 4040
M  V30 3752 2 1856 1857
M  V30 3753 1 1856 1862
M  V30 3754 1 1858 1859
M  V30 3755 1 1858 4041
M  V30 3756 1 1858 4042
M  V30 3757 2 1859 1860
M  V30 3758 1 1859 1861
M  V30 3759 1 1862 1863
M  V30 3760 1 1862 4043
M  V30 3761 1 1863 1864
M  V30 3762 1 1863 1866
M  V30 3763 1 1863 4044
M  V30 3764 2 1864 1865
M  V30 3765 1 1864 1870
M  V30 3766 1 1866 1867
M  V30 3767 1 1866 4045
M  V30 3768 1 1866 4046
M  V30 3769 2 1867 1868
M  V30 3770 1 1867 1869
M  V30 3771 1 1869 4047
M  V30 3772 1 1869 4048
M  V30 3773 1 1870 1871
M  V30 3774 1 1870 4049
M  V30 3775 1 1871 1872
M  V30 3776 1 1871 1874
M  V30 3777 1 1871 4050
M  V30 3778 2 1872 1873
M  V30 3779 1 1872 1876
M  V30 3780 1 1874 1875
M  V30 3781 1 1874 4051
M  V30 3782 1 1874 4052
M  V30 3783 1 1875 4053
M  V30 3784 1 1876 1877
M  V30 3785 1 1876 1882
M  V30 3786 1 1877 1878
M  V30 3787 1 1877 1880
M  V30 3788 1 1877 4054
M  V30 3789 2 1878 1879
M  V30 3790 1 1878 1883
M  V30 3791 1 1880 1881
M  V30 3792 1 1880 4055
M  V30 3793 1 1880 4056
M  V30 3794 1 1881 1882
M  V30 3795 1 1881 4057
M  V30 3796 1 1881 4058
M  V30 3797 1 1882 4059
M  V30 3798 1 1882 4060
M  V30 3799 1 1883 1884
M  V30 3800 1 1883 4061
M  V30 3801 1 1884 1885
M  V30 3802 1 1884 1887
M  V30 3803 1 1884 4062
M  V30 3804 2 1885 1886
M  V30 3805 1 1885 1892
M  V30 3806 1 1887 1888
M  V30 3807 1 1887 4063
M  V30 3808 1 1887 4064
M  V30 3809 1 1888 1889
M  V30 3810 1 1888 4065
M  V30 3811 1 1888 4066
M  V30 3812 2 1889 1890
M  V30 3813 1 1889 1891
M  V30 3814 1 1892 1893
M  V30 3815 1 1892 4067
M  V30 3816 1 1893 1894
M  V30 3817 1 1893 1896
M  V30 3818 1 1893 4068
M  V30 3819 2 1894 1895
M  V30 3820 1 1894 1901
M  V30 3821 1 1896 1897
M  V30 3822 1 1896 4069
M  V30 3823 1 1896 4070
M  V30 3824 1 1897 1898
M  V30 3825 1 1897 4071
M  V30 3826 1 1897 4072
M  V30 3827 2 1898 1899
M  V30 3828 1 1898 1900
M  V30 3829 1 1901 1902
M  V30 3830 1 1901 4073
M  V30 3831 1 1902 1903
M  V30 3832 1 1902 1905
M  V30 3833 1 1902 4074
M  V30 3834 2 1903 1904
M  V30 3835 1 1903 1909
M  V30 3836 1 1905 1906
M  V30 3837 1 1905 4075
M  V30 3838 1 1905 4076
M  V30 3839 1 1906 1907
M  V30 3840 1 1906 1908
M  V30 3841 1 1906 4077
M  V30 3842 1 1907 4078
M  V30 3843 1 1907 4079
M  V30 3844 1 1907 4080
M  V30 3845 1 1908 4081
M  V30 3846 1 1908 4082
M  V30 3847 1 1908 4083
M  V30 3848 1 1909 1910
M  V30 3849 1 1909 4084
M  V30 3850 1 1910 1911
M  V30 3851 1 1910 1913
M  V30 3852 1 1910 4085
M  V30 3853 2 1911 1912
M  V30 3854 1 1911 1921
M  V30 3855 1 1913 1914
M  V30 3856 1 1913 4086
M  V30 3857 1 1913 4087
M  V30 3858 2 1914 1915
M  V30 3859 1 1914 1916
M  V30 3860 1 1915 1917
M  V30 3861 1 1915 4088
M  V30 3862 2 1916 1918
M  V30 3863 1 1916 4089
M  V30 3864 2 1917 1919
M  V30 3865 1 1917 4090
M  V30 3866 1 1918 1919
M  V30 3867 1 1918 4091
M  V30 3868 1 1919 1920
M  V30 3869 1 1920 4092
M  V30 3870 1 1921 1922
M  V30 3871 1 1921 4093
M  V30 3872 1 1922 1923
M  V30 3873 1 1922 1925
M  V30 3874 1 1922 4094
M  V30 3875 2 1923 1924
M  V30 3876 1 1923 1930
M  V30 3877 1 1925 1926
M  V30 3878 1 1925 4095
M  V30 3879 1 1925 4096
M  V30 3880 1 1926 1927
M  V30 3881 1 1926 4097
M  V30 3882 1 1926 4098
M  V30 3883 2 1927 1928
M  V30 3884 1 1927 1929
M  V30 3885 1 1929 4099
M  V30 3886 1 1929 4100
M  V30 3887 1 1930 1931
M  V30 3888 1 1930 4101
M  V30 3889 1 1931 1932
M  V30 3890 1 1931 1934
M  V30 3891 1 1931 4102
M  V30 3892 2 1932 1933
M  V30 3893 1 1932 1938
M  V30 3894 1 1934 1935
M  V30 3895 1 1934 4103
M  V30 3896 1 1934 4104
M  V30 3897 1 1935 1936
M  V30 3898 1 1935 1937
M  V30 3899 1 1935 4105
M  V30 3900 1 1936 4106
M  V30 3901 1 1936 4107
M  V30 3902 1 1936 4108
M  V30 3903 1 1937 4109
M  V30 3904 1 1937 4110
M  V30 3905 1 1937 4111
M  V30 3906 1 1938 1939
M  V30 3907 1 1938 4112
M  V30 3908 1 1939 1940
M  V30 3909 1 1939 1942
M  V30 3910 1 1939 4113
M  V30 3911 2 1940 1941
M  V30 3912 1 1940 1946
M  V30 3913 1 1942 1943
M  V30 3914 1 1942 4114
M  V30 3915 1 1942 4115
M  V30 3916 1 1943 1944
M  V30 3917 1 1943 4116
M  V30 3918 1 1943 4117
M  V30 3919 1 1944 1945
M  V30 3920 1 1945 4118
M  V30 3921 1 1945 4119
M  V30 3922 1 1945 4120
M  V30 3923 1 1946 1947
M  V30 3924 1 1946 4121
M  V30 3925 1 1947 1948
M  V30 3926 1 1947 1950
M  V30 3927 1 1947 4122
M  V30 3928 2 1948 1949
M  V30 3929 1 1948 1957
M  V30 3930 1 1950 1951
M  V30 3931 1 1950 4123
M  V30 3932 1 1950 4124
M  V30 3933 1 1951 1952
M  V30 3934 1 1951 4125
M  V30 3935 1 1951 4126
M  V30 3936 1 1952 1953
M  V30 3937 1 1952 4127
M  V30 3938 1 1952 4128
M  V30 3939 1 1953 1954
M  V30 3940 1 1953 4129
M  V30 3941 1 1954 1955
M  V30 3942 2 1954 1956
M  V30 3943 1 1955 4130
M  V30 3944 1 1955 4131
M  V30 3945 1 1956 4132
M  V30 3946 1 1956 4133
M  V30 3947 1 1957 1958
M  V30 3948 1 1957 4134
M  V30 3949 1 1958 1959
M  V30 3950 1 1958 1961
M  V30 3951 1 1958 4135
M  V30 3952 2 1959 1960
M  V30 3953 1 1959 1965
M  V30 3954 1 1961 1962
M  V30 3955 1 1961 4136
M  V30 3956 1 1961 4137
M  V30 3957 1 1962 1963
M  V30 3958 1 1962 1964
M  V30 3959 1 1962 4138
M  V30 3960 1 1963 4139
M  V30 3961 1 1963 4140
M  V30 3962 1 1963 4141
M  V30 3963 1 1964 4142
M  V30 3964 1 1964 4143
M  V30 3965 1 1964 4144
M  V30 3966 1 1965 1966
M  V30 3967 1 1965 4145
M  V30 3968 1 1966 1967
M  V30 3969 1 1966 1969
M  V30 3970 1 1966 4146
M  V30 3971 2 1967 1968
M  V30 3972 1 1967 1971
M  V30 3973 1 1969 1970
M  V30 3974 1 1969 4147
M  V30 3975 1 1969 4148
M  V30 3976 1 1970 4149
M  V30 3977 1 1971 1972
M  V30 3978 1 1971 4150
M  V30 3979 1 1972 1973
M  V30 3980 1 1972 1975
M  V30 3981 1 1972 4151
M  V30 3982 2 1973 1974
M  V30 3983 1 1973 1985
M  V30 3984 1 1975 1976
M  V30 3985 1 1975 4152
M  V30 3986 1 1975 4153
M  V30 3987 2 1976 1977
M  V30 3988 1 1976 1978
M  V30 3989 1 1977 1979
M  V30 3990 1 1977 4154
M  V30 3991 2 1978 1980
M  V30 3992 1 1978 1981
M  V30 3993 1 1979 1980
M  V30 3994 1 1979 4155
M  V30 3995 1 1980 1982
M  V30 3996 2 1981 1983
M  V30 3997 1 1981 4156
M  V30 3998 2 1982 1984
M  V30 3999 1 1982 4157
M  V30 4000 1 1983 1984
M  V30 4001 1 1983 4158
M  V30 4002 1 1984 4159
M  V30 4003 1 1985 1986
M  V30 4004 1 1985 4160
M  V30 4005 1 1986 1987
M  V30 4006 1 1986 1989
M  V30 4007 1 1986 4161
M  V30 4008 2 1987 1988
M  V30 4009 1 1987 1994
M  V30 4010 1 1989 1990
M  V30 4011 1 1989 4162
M  V30 4012 1 1989 4163
M  V30 4013 1 1990 1991
M  V30 4014 1 1990 4164
M  V30 4015 1 1990 4165
M  V30 4016 1 1991 1992
M  V30 4017 1 1991 4166
M  V30 4018 1 1991 4167
M  V30 4019 1 1992 1993
M  V30 4020 1 1992 4168
M  V30 4021 1 1992 4169
M  V30 4022 1 1993 4170
M  V30 4023 1 1993 4171
M  V30 4024 1 1993 4172
M  V30 4025 1 1994 1995
M  V30 4026 1 1994 4173
M  V30 4027 1 1995 1996
M  V30 4028 1 1995 1998
M  V30 4029 1 1995 4174
M  V30 4030 2 1996 1997
M  V30 4031 1 1996 2003
M  V30 4032 1 1998 1999
M  V30 4033 1 1998 4175
M  V30 4034 1 1998 4176
M  V30 4035 1 1999 2000
M  V30 4036 1 1999 4177
M  V30 4037 1 1999 4178
M  V30 4038 2 2000 2001
M  V30 4039 1 2000 2002
M  V30 4040 1 2003 2004
M  V30 4041 1 2003 4179
M  V30 4042 1 2004 2005
M  V30 4043 1 2004 2007
M  V30 4044 1 2004 4180
M  V30 4045 2 2005 2006
M  V30 4046 1 2005 2014
M  V30 4047 1 2007 2008
M  V30 4048 1 2007 4181
M  V30 4049 1 2007 4182
M  V30 4050 1 2008 2009
M  V30 4051 1 2008 4183
M  V30 4052 1 2008 4184
M  V30 4053 1 2009 2010
M  V30 4054 1 2009 4185
M  V30 4055 1 2009 4186
M  V30 4056 1 2010 2011
M  V30 4057 1 2010 4187
M  V30 4058 1 2011 2012
M  V30 4059 2 2011 2013
M  V30 4060 1 2012 4188
M  V30 4061 1 2012 4189
M  V30 4062 1 2013 4190
M  V30 4063 1 2013 4191
M  V30 4064 1 2014 2015
M  V30 4065 1 2014 2020
M  V30 4066 1 2015 2016
M  V30 4067 1 2015 2018
M  V30 4068 1 2015 4192
M  V30 4069 2 2016 2017
M  V30 4070 1 2016 2021
M  V30 4071 1 2018 2019
M  V30 4072 1 2018 4193
M  V30 4073 1 2018 4194
M  V30 4074 1 2019 2020
M  V30 4075 1 2019 4195
M  V30 4076 1 2019 4196
M  V30 4077 1 2020 4197
M  V30 4078 1 2020 4198
M  V30 4079 1 2021 2022
M  V30 4080 1 2021 4199
M  V30 4081 1 2022 2023
M  V30 4082 1 2022 2025
M  V30 4083 1 2022 4200
M  V30 4084 2 2023 2024
M  V30 4085 1 2023 2030
M  V30 4086 1 2025 2026
M  V30 4087 1 2025 4201
M  V30 4088 1 2025 4202
M  V30 4089 1 2026 2027
M  V30 4090 1 2026 4203
M  V30 4091 1 2026 4204
M  V30 4092 2 2027 2028
M  V30 4093 1 2027 2029
M  V30 4094 1 2030 2031
M  V30 4095 1 2030 4205
M  V30 4096 1 2031 2032
M  V30 4097 1 2031 2034
M  V30 4098 1 2031 4206
M  V30 4099 2 2032 2033
M  V30 4100 1 2032 2038
M  V30 4101 1 2034 2035
M  V30 4102 1 2034 4207
M  V30 4103 1 2034 4208
M  V30 4104 2 2035 2036
M  V30 4105 1 2035 2037
M  V30 4106 1 2038 2039
M  V30 4107 1 2038 4209
M  V30 4108 1 2039 2040
M  V30 4109 1 2039 2042
M  V30 4110 1 2039 4210
M  V30 4111 2 2040 2041
M  V30 4112 1 2040 2049
M  V30 4113 1 2042 2043
M  V30 4114 1 2042 4211
M  V30 4115 1 2042 4212
M  V30 4116 1 2043 2044
M  V30 4117 1 2043 4213
M  V30 4118 1 2043 4214
M  V30 4119 1 2044 2045
M  V30 4120 1 2044 4215
M  V30 4121 1 2044 4216
M  V30 4122 1 2045 2046
M  V30 4123 1 2045 4217
M  V30 4124 1 2046 2047
M  V30 4125 2 2046 2048
M  V30 4126 1 2047 4218
M  V30 4127 1 2047 4219
M  V30 4128 1 2048 4220
M  V30 4129 1 2048 4221
M  V30 4130 1 2049 2050
M  V30 4131 1 2049 2055
M  V30 4132 1 2050 2051
M  V30 4133 1 2050 2053
M  V30 4134 1 2050 4222
M  V30 4135 2 2051 2052
M  V30 4136 1 2051 2056
M  V30 4137 1 2053 2054
M  V30 4138 1 2053 4223
M  V30 4139 1 2053 4224
M  V30 4140 1 2054 2055
M  V30 4141 1 2054 4225
M  V30 4142 1 2054 4226
M  V30 4143 1 2055 4227
M  V30 4144 1 2055 4228
M  V30 4145 1 2056 2057
M  V30 4146 1 2056 4229
M  V30 4147 1 2057 2058
M  V30 4148 1 2057 2060
M  V30 4149 1 2057 4230
M  V30 4150 2 2058 2059
M  V30 4151 1 2058 2063
M  V30 4152 1 2060 2061
M  V30 4153 1 2060 2062
M  V30 4154 1 2060 4231
M  V30 4155 1 2061 4232
M  V30 4156 1 2062 4233
M  V30 4157 1 2062 4234
M  V30 4158 1 2062 4235
M  V30 4159 1 2063 2064
M  V30 4160 1 2063 4236
M  V30 4161 1 2064 2065
M  V30 4162 1 2064 2067
M  V30 4163 1 2064 4237
M  V30 4164 2 2065 2066
M  V30 4165 1 2065 2074
M  V30 4166 1 2067 2068
M  V30 4167 1 2067 4238
M  V30 4168 1 2067 4239
M  V30 4169 2 2068 2069
M  V30 4170 1 2068 2070
M  V30 4171 1 2069 2071
M  V30 4172 1 2069 4240
M  V30 4173 2 2070 2072
M  V30 4174 1 2070 4241
M  V30 4175 2 2071 2073
M  V30 4176 1 2071 4242
M  V30 4177 1 2072 2073
M  V30 4178 1 2072 4243
M  V30 4179 1 2073 4244
M  V30 4180 1 2074 2075
M  V30 4181 1 2074 4245
M  V30 4182 1 2075 2076
M  V30 4183 1 2075 2078
M  V30 4184 1 2075 4246
M  V30 4185 2 2076 2077
M  V30 4186 1 2076 2082
M  V30 4187 1 2078 2079
M  V30 4188 1 2078 4247
M  V30 4189 1 2078 4248
M  V30 4190 2 2079 2080
M  V30 4191 1 2079 2081
M  V30 4192 1 2082 2083
M  V30 4193 1 2082 4249
M  V30 4194 1 2083 2084
M  V30 4195 1 2083 2086
M  V30 4196 1 2083 4250
M  V30 4197 2 2084 2085
M  V30 4198 1 2084 2094
M  V30 4199 1 2086 2087
M  V30 4200 1 2086 4251
M  V30 4201 1 2086 4252
M  V30 4202 2 2087 2088
M  V30 4203 1 2087 2089
M  V30 4204 1 2088 2090
M  V30 4205 1 2088 4253
M  V30 4206 2 2089 2091
M  V30 4207 1 2089 4254
M  V30 4208 2 2090 2092
M  V30 4209 1 2090 4255
M  V30 4210 1 2091 2092
M  V30 4211 1 2091 4256
M  V30 4212 1 2092 2093
M  V30 4213 1 2093 4257
M  V30 4214 1 2094 2095
M  V30 4215 1 2094 4258
M  V30 4216 1 2095 2096
M  V30 4217 1 2095 2098
M  V30 4218 1 2095 4259
M  V30 4219 2 2096 2097
M  V30 4220 1 2096 2102
M  V30 4221 1 2098 2099
M  V30 4222 1 2098 4260
M  V30 4223 1 2098 4261
M  V30 4224 1 2099 2100
M  V30 4225 1 2099 2101
M  V30 4226 1 2099 4262
M  V30 4227 1 2100 4263
M  V30 4228 1 2100 4264
M  V30 4229 1 2100 4265
M  V30 4230 1 2101 4266
M  V30 4231 1 2101 4267
M  V30 4232 1 2101 4268
M  V30 4233 1 2102 2103
M  V30 4234 1 2102 4269
M  V30 4235 1 2103 2104
M  V30 4236 1 2103 2106
M  V30 4237 1 2103 4270
M  V30 4238 2 2104 2105
M  V30 4239 1 2104 2113
M  V30 4240 1 2106 2107
M  V30 4241 1 2106 4271
M  V30 4242 1 2106 4272
M  V30 4243 1 2107 2108
M  V30 4244 1 2107 4273
M  V30 4245 1 2107 4274
M  V30 4246 1 2108 2109
M  V30 4247 1 2108 4275
M  V30 4248 1 2108 4276
M  V30 4249 1 2109 2110
M  V30 4250 1 2109 4277
M  V30 4251 1 2110 2111
M  V30 4252 2 2110 2112
M  V30 4253 1 2111 4278
M  V30 4254 1 2111 4279
M  V30 4255 1 2112 4280
M  V30 4256 1 2112 4281
M  V30 4257 1 2113 2114
M  V30 4258 1 2113 4282
M  V30 4259 1 2114 2115
M  V30 4260 1 2114 2117
M  V30 4261 1 2114 4283
M  V30 4262 2 2115 2116
M  V30 4263 1 2115 2119
M  V30 4264 1 2117 2118
M  V30 4265 1 2117 4284
M  V30 4266 1 2117 4285
M  V30 4267 1 2118 4286
M  V30 4268 1 2119 2120
M  V30 4269 1 2119 4287
M  V30 4270 1 2120 2121
M  V30 4271 1 2120 2123
M  V30 4272 1 2120 4288
M  V30 4273 2 2121 2122
M  V30 4274 1 2121 2126
M  V30 4275 1 2123 2124
M  V30 4276 1 2123 2125
M  V30 4277 1 2123 4289
M  V30 4278 1 2124 4290
M  V30 4279 1 2124 4291
M  V30 4280 1 2124 4292
M  V30 4281 1 2125 4293
M  V30 4282 1 2125 4294
M  V30 4283 1 2125 4295
M  V30 4284 1 2126 2127
M  V30 4285 1 2126 4296
M  V30 4286 1 2127 2128
M  V30 4287 1 2127 2130
M  V30 4288 1 2127 4297
M  V30 4289 2 2128 2129
M  V30 4290 1 2128 2134
M  V30 4291 1 2130 2131
M  V30 4292 1 2130 4298
M  V30 4293 1 2130 4299
M  V30 4294 1 2131 2132
M  V30 4295 1 2131 2133
M  V30 4296 1 2131 4300
M  V30 4297 1 2132 4301
M  V30 4298 1 2132 4302
M  V30 4299 1 2132 4303
M  V30 4300 1 2133 4304
M  V30 4301 1 2133 4305
M  V30 4302 1 2133 4306
M  V30 4303 1 2134 2135
M  V30 4304 1 2134 4307
M  V30 4305 1 2135 2136
M  V30 4306 1 2135 2138
M  V30 4307 1 2135 4308
M  V30 4308 2 2136 2137
M  V30 4309 1 2136 2143
M  V30 4310 1 2138 2139
M  V30 4311 1 2138 4309
M  V30 4312 1 2138 4310
M  V30 4313 1 2139 2140
M  V30 4314 1 2139 4311
M  V30 4315 1 2139 4312
M  V30 4316 2 2140 2141
M  V30 4317 1 2140 2142
M  V30 4318 1 2143 2144
M  V30 4319 1 2143 4313
M  V30 4320 1 2144 2145
M  V30 4321 1 2144 2147
M  V30 4322 1 2144 4314
M  V30 4323 2 2145 2146
M  V30 4324 1 2145 2151
M  V30 4325 1 2147 2148
M  V30 4326 1 2147 4315
M  V30 4327 1 2147 4316
M  V30 4328 2 2148 2149
M  V30 4329 1 2148 2150
M  V30 4330 1 2151 2152
M  V30 4331 1 2151 4317
M  V30 4332 1 2152 2153
M  V30 4333 1 2152 2155
M  V30 4334 1 2152 4318
M  V30 4335 2 2153 2154
M  V30 4336 1 2153 2162
M  V30 4337 1 2155 2156
M  V30 4338 1 2155 4319
M  V30 4339 1 2155 4320
M  V30 4340 2 2156 2157
M  V30 4341 1 2156 2158
M  V30 4342 1 2157 2159
M  V30 4343 1 2157 4321
M  V30 4344 2 2158 2160
M  V30 4345 1 2158 4322
M  V30 4346 2 2159 2161
M  V30 4347 1 2159 4323
M  V30 4348 1 2160 2161
M  V30 4349 1 2160 4324
M  V30 4350 1 2161 4325
M  V30 4351 1 2162 2163
M  V30 4352 1 2162 4326
M  V30 4353 1 2163 2164
M  V30 4354 1 2163 2166
M  V30 4355 1 2163 4327
M  V30 4356 2 2164 2165
M  V30 4357 1 2164 2173
M  V30 4358 1 2166 2167
M  V30 4359 1 2166 4328
M  V30 4360 1 2166 4329
M  V30 4361 2 2167 2168
M  V30 4362 1 2167 2169
M  V30 4363 1 2168 2170
M  V30 4364 1 2168 4330
M  V30 4365 2 2169 2171
M  V30 4366 1 2169 4331
M  V30 4367 2 2170 2172
M  V30 4368 1 2170 4332
M  V30 4369 1 2171 2172
M  V30 4370 1 2171 4333
M  V30 4371 1 2172 4334
M  V30 4372 1 2173 2174
M  V30 4373 1 2173 4335
M  V30 4374 1 2174 2175
M  V30 4375 1 2174 2177
M  V30 4376 1 2174 4336
M  V30 4377 2 2175 2176
M  V30 4378 1 2175 2180
M  V30 4379 1 2177 2178
M  V30 4380 1 2177 2179
M  V30 4381 1 2177 4337
M  V30 4382 1 2178 4338
M  V30 4383 1 2179 4339
M  V30 4384 1 2179 4340
M  V30 4385 1 2179 4341
M  V30 4386 1 2180 2181
M  V30 4387 1 2180 4342
M  V30 4388 1 2181 2182
M  V30 4389 1 2181 2184
M  V30 4390 1 2181 4343
M  V30 4391 2 2182 2183
M  V30 4392 1 2182 2185
M  V30 4393 1 2184 4344
M  V30 4394 1 2184 4345
M  V30 4395 1 2184 4346
M  V30 4396 1 2185 2186
M  V30 4397 1 2185 4347
M  V30 4398 1 2186 2187
M  V30 4399 1 2186 2189
M  V30 4400 1 2186 4348
M  V30 4401 2 2187 2188
M  V30 4402 1 2187 2192
M  V30 4403 1 2189 2190
M  V30 4404 1 2189 2191
M  V30 4405 1 2189 4349
M  V30 4406 1 2190 4350
M  V30 4407 1 2191 4351
M  V30 4408 1 2191 4352
M  V30 4409 1 2191 4353
M  V30 END BOND
M  V30 END CTAB
M  END
> <s_m_entry_id>
1

> <s_m_entry_name>
3byo.1

> <s_pdb_PDB_TITLE>
X-RAY CO-CRYSTAL STRUCTURE OF 2-AMINO-6-PHENYLPYRIMIDO[5',4':5, 6]PYRIMIDO[1,2-A]BENZIMIDAZOL-5(6H)-ONE 25 BOUND TO LCK

> <s_pdb_PDB_ID>
3BYO

> <r_pdb_PDB_CRYST1_a>
42.134

> <r_pdb_PDB_CRYST1_b>
73.544

> <r_pdb_PDB_CRYST1_c>
92.668

> <r_pdb_PDB_CRYST1_alpha>
90

> <r_pdb_PDB_CRYST1_beta>
90

> <r_pdb_PDB_CRYST1_gamma>
90

> <s_pdb_PDB_CRYST1_Space_Group>
P 21 21 21

> <i_pdb_PDB_CRYST1_z>
4

> <s_pdb_PDB_CLASSIFICATION>
TRANSFERASE

> <s_pdb_PDB_DEPOSITION_DATE>
16-JAN-08

> <s_pdb_PDB_format_version>
3.30

> <r_pdb_PDB_R>
0.223

> <r_pdb_PDB_Rfree>
0.259

> <r_pdb_PDB_RESOLUTION>
2

> <s_pdb_PDB_EXPDTA>
X-RAY DIFFRACTION

> <r_pdb_PDB_EXPDTA_TEMPERATURE>
100

> <r_pdb_PDB_EXPDTA_PH>
8.5

> <s_pdb_PDB_REMARK_350_Biomolecule_1_Transform_1_Chains>
A

> <s_pdb_PDB_REMARK_350_Biomolecule_1_Transform_1_Matrix_1>
1.000000 0.000000 0.000000   0.000000;0.000000 1.000000 0.000000   0.000000;0.000000 0.000000 1.000000   0.000000

> <s_m_Source_Path>
D:\OneDrive - zju.edu.cn\DOC\A-Finished\LCK_VS\Planet\LCK-8617

> <s_m_Source_File>
glide-dock_SP_top1262_2_pv.maegz

> <i_m_Source_File_Index>
1

> <s_ppw_entry_id_backup>
1

> <b_ppw_prepared>
1

> <s_ppw_prepared_with_version>
2021-2

> <b_ppw_assigned_bond_orders>
1

> <b_ppw_added_hydrogens>
1

> <b_ppw_treated_metals>
1

> <b_ppw_created_disulfur>
1

> <s_ppw_het_states>
eJztVDFSwzAQ/IrGLSHoTrJkJx0VLUPJpMgEKkJCYQomk79jraKsbQooKexqtVrdnk7nO1VSrcxz/6m0bmHsZmES9IQ1YSCMhA1hW6BaSyiESugIPWFNGAgjYUNIN6Gb0E3oJnQTugndhG5CN6Gb0E3ppnRTuindlG5KN6Wb0k3ppnRzdHN0c3BL+PJy+dHk8hCZ6OPpiGip8CBqKmoQgYpE4BUKEaCIPBKgGASNxbYQLRS2EIC5I8bENQ/s5UYphIJwPOJAeCpAaKDCl6CFyJnGCSGDxCIUzYSQQR7N+LYXQgZHcFu5Fgjxc0eOCd4Fe3AZE7yL4HLC2wKidYuiLkeKIifGTDORurIokGnq4zHBoNhDexcCiSnrAYigRZGfwZNAkTVOCDcIiiIrS6g5U6auSMzZKcGKOcugPSNLj3qeqtTk/XAD0YdN62a07nVlref+d1rWsUkbT922ezUfr4ftvvvKAvO22+7v3o/7tXm4vT8eXszu+HnoVkbX5nFlbIU/cR6i/26IDppkHqLzEJ2H6J+GqF3aOvjBEE1EFA5RrvMQzQfOafy23oWfQ7QXhF+G6I1Um835G18oL9U=

> <b_ppw_ran_protassign>
1

> <r_i_Potential_Energy-S-OPLS>
-1049.06871606528

> <r_i_RMS_Derivative-S-OPLS>
0.0762138718632666

> <r_i_Max_Derivative-S-OPLS>
0.861759807469427

> <r_i_Stretch_Energy-S-OPLS>
137.49819327507

> <r_i_Bend_Energy-S-OPLS>
580.18186122896

> <r_i_LJ-14_Energy-S-OPLS>
1360.02201480393

> <r_i_El-14_Energy-S-OPLS>
413.961575467294

> <r_i_Van_der_Waals_Energy-S-OPLS>
-2681.23362283021

> <r_i_Electrostatic_Energy-S-OPLS>
-1439.52496786164

> <r_i_Dihedral_Energy-S-OPLS>
551.867136583359

> <r_i_target_temperature>
298

> <b_ppw_ran_impref>
1

> <i_glide_grid_version>
91117

> <r_glide_gridbox_xcent>
26.6829754225352

> <r_glide_gridbox_ycent>
37.7566281690141

> <r_glide_gridbox_zcent>
85.4435022253521

> <r_glide_gridbox_xrange>
29.6539136050708

> <r_glide_gridbox_yrange>
29.6539136050708

> <r_glide_gridbox_zrange>
29.6539136050708

> <r_glide_gridbox_ligxrange>
10

> <r_glide_gridbox_ligyrange>
10

> <r_glide_gridbox_ligzrange>
10

> <s_glide_grid_type>
glide

> <b_glide_receptor>
1

> <s_m_subgroup_title>
glide-dock_SP_top1262_2_pv

> <s_m_subgroupid>
glide-dock_SP_top1262_2_pv

> <b_m_subgroup_collapsed>
0

$$$$
O=C1N(C2=C(C)C=CC=C2C)C3=NC4=CC=CC=C4N3C5=NC(NC6=CC=C(N7CCN(C)CC7)C=C6)=NC=C15
                    3D
 Schrodinger Suite 2021-3.
  0  0  0     0  0            999 V3000
M  V30 BEGIN CTAB
M  V30 COUNTS 71 77 0 0 0
M  V30 BEGIN ATOM
M  V30 1 C  21.1093 35.2266 87.4259 0
M  V30 2 C  20.3006 36.4833 87.1161 0
M  V30 3 C  19.0367 36.6225 87.6957 0
M  V30 4 C  18.2633 37.7534 87.4507 0
M  V30 5 C  18.7440 38.7573 86.6159 0
M  V30 6 C  19.9982 38.6410 86.0093 0
M  V30 7 C  20.4657 39.7549 85.0782 0
M  V30 8 C  20.7875 37.4964 86.2590 0
M  V30 9 N  22.0487 37.3454 85.6226 0
M  V30 10 C  22.1294 36.5971 84.4796 0
M  V30 11 O  21.1462 36.1809 83.8649 0
M  V30 12 C  23.5504 36.3269 84.0443 0
M  V30 13 C  24.6673 36.8777 84.6866 0
M  V30 14 N  24.4344 37.7121 85.8018 0
M  V30 15 C  23.1439 37.9825 86.2472 0
M  V30 16 C  25.2946 38.4182 86.6287 0
M  V30 17 C  24.4273 39.1377 87.4919 0
M  V30 18 N  23.1153 38.8395 87.2435 0
M  V30 19 C  24.9610 40.0010 88.4581 0
M  V30 20 C  26.3491 40.1057 88.5558 0
M  V30 21 C  27.1896 39.3768 87.7151 0
M  V30 22 C  26.6885 38.5211 86.7311 0
M  V30 23 C  23.7998 35.5424 82.9150 0
M  V30 24 N  25.0560 35.3477 82.4391 0
M  V30 25 C  26.0747 35.9606 83.0927 0
M  V30 26 N  25.9346 36.6976 84.2285 0
M  V30 27 N  27.3341 35.8068 82.4950 0
M  V30 28 C  28.6183 36.2561 82.8437 0
M  V30 29 C  29.7109 35.5571 82.3387 0
M  V30 30 C  31.0092 35.9499 82.6562 0
M  V30 31 C  31.2547 37.0385 83.5098 0
M  V30 32 C  30.1403 37.7607 83.9701 0
M  V30 33 C  28.8436 37.3801 83.6396 0
M  V30 34 N  32.5646 37.4442 83.8107 0
M  V30 35 C  33.6961 36.4894 83.8470 0
M  V30 36 C  33.8579 35.7673 85.2082 0
M  V30 37 N  34.0415 36.8193 86.3254 0 CHG=1
M  V30 38 C  34.1429 36.1309 87.7042 0
M  V30 39 C  32.8732 37.8259 86.2695 0
M  V30 40 C  32.8529 38.4499 84.8553 0
M  V30 41 H  20.6120 34.5763 88.1469 0
M  V30 42 H  21.2828 34.6481 86.5183 0
M  V30 43 H  22.0829 35.4970 87.8342 0
M  V30 44 H  18.6482 35.8529 88.3476 0
M  V30 45 H  17.2895 37.8583 87.9089 0
M  V30 46 H  18.1270 39.6287 86.4433 0
M  V30 47 H  19.6876 40.4963 84.8947 0
M  V30 48 H  21.3326 40.2646 85.4985 0
M  V30 49 H  20.7625 39.3437 84.1131 0
M  V30 50 H  24.3146 40.5603 89.1179 0
M  V30 51 H  26.7830 40.7616 89.2972 0
M  V30 52 H  28.2603 39.4810 87.8286 0
M  V30 53 H  27.3537 37.9589 86.0961 0
M  V30 54 H  22.9968 35.0716 82.3603 0
M  V30 55 H  27.3020 35.3192 81.6039 0
M  V30 56 H  29.5641 34.7060 81.6884 0
M  V30 57 H  31.8118 35.3815 82.2149 0
M  V30 58 H  30.2466 38.6350 84.5910 0
M  V30 59 H  28.0263 37.9880 83.9887 0
M  V30 60 H  33.6389 35.7578 83.0437 0
M  V30 61 H  34.6147 37.0360 83.6260 0
M  V30 62 H  34.7614 35.1560 85.2285 0
M  V30 63 H  33.0016 35.1375 85.4554 0
M  V30 64 H  33.2829 35.4738 87.8379 0
M  V30 65 H  35.0705 35.5567 87.7014 0
M  V30 66 H  34.1748 36.9053 88.4718 0
M  V30 67 H  33.0505 38.5721 87.0467 0
M  V30 68 H  31.9535 37.2859 86.4931 0
M  V30 69 H  33.8243 38.9027 84.6461 0
M  V30 70 H  32.1746 39.3005 84.8003 0
M  V30 71 H  34.8963 37.3266 86.1377 0
M  V30 END ATOM
M  V30 BEGIN BOND
M  V30 1 1 1 2
M  V30 2 1 1 41
M  V30 3 1 1 42
M  V30 4 1 1 43
M  V30 5 2 2 3
M  V30 6 1 2 8
M  V30 7 1 3 4
M  V30 8 1 3 44
M  V30 9 2 4 5
M  V30 10 1 4 45
M  V30 11 1 5 6
M  V30 12 1 5 46
M  V30 13 1 6 7
M  V30 14 2 6 8
M  V30 15 1 7 47
M  V30 16 1 7 48
M  V30 17 1 7 49
M  V30 18 1 8 9
M  V30 19 1 9 10
M  V30 20 1 9 15
M  V30 21 2 10 11
M  V30 22 1 10 12
M  V30 23 2 12 13
M  V30 24 1 12 23
M  V30 25 1 13 14
M  V30 26 1 13 26
M  V30 27 1 14 15
M  V30 28 1 14 16
M  V30 29 2 15 18
M  V30 30 2 16 17
M  V30 31 1 16 22
M  V30 32 1 17 18
M  V30 33 1 17 19
M  V30 34 2 19 20
M  V30 35 1 19 50
M  V30 36 1 20 21
M  V30 37 1 20 51
M  V30 38 2 21 22
M  V30 39 1 21 52
M  V30 40 1 22 53
M  V30 41 2 23 24
M  V30 42 1 23 54
M  V30 43 1 24 25
M  V30 44 2 25 26
M  V30 45 1 25 27
M  V30 46 1 27 28
M  V30 47 1 27 55
M  V30 48 2 28 29
M  V30 49 1 28 33
M  V30 50 1 29 30
M  V30 51 1 29 56
M  V30 52 2 30 31
M  V30 53 1 30 57
M  V30 54 1 31 32
M  V30 55 1 31 34
M  V30 56 2 32 33
M  V30 57 1 32 58
M  V30 58 1 33 59
M  V30 59 1 34 35
M  V30 60 1 34 40
M  V30 61 1 35 36
M  V30 62 1 35 60
M  V30 63 1 35 61
M  V30 64 1 36 37
M  V30 65 1 36 62
M  V30 66 1 36 63
M  V30 67 1 37 38
M  V30 68 1 37 39
M  V30 69 1 37 71
M  V30 70 1 38 64
M  V30 71 1 38 65
M  V30 72 1 38 66
M  V30 73 1 39 40
M  V30 74 1 39 67
M  V30 75 1 39 68
M  V30 76 1 40 69
M  V30 77 1 40 70
M  V30 END BOND
M  V30 END CTAB
M  END
> <s_m_entry_id>
2

> <s_m_entry_name>
result.6575

> <s_m_Source_Path>
D:\OneDrive - zju.edu.cn\DOC\A-Finished\LCK_VS\Planet\LCK-8617

> <s_m_Source_File>
glide-dock_SP_top1262_2_pv.maegz

> <i_m_Source_File_Index>
2

> <PLANET_affinity>
8.552

> <i_lp_mmshare_version>
54117

> <i_f3d_flags>
0

> <s_epik_input>
W0NIM11jMVtjSF1bY0hdW2NIXWMoW0NIM10pYzEtbihjMj1PKWMobmMzYzRbY0hdW2NIXVtjSF1bY0hdMyluNGMoYzI1KW5jKG5bY0hdNSlbTkhdYzZbY0hdW2NIXWMoW2NIXVtjSF02KU43W0NIMl1bQ0gyXU4oW0NIM10pW0NIMl1bQ0gyXTc=

> <s_epik_cmdline>
J2VwaWtfcHl0aG9uJywgJy1waCcsICc3LjAnLCAnLXRuJywgJzgnLCAnLW1hJywgJzUwMCcsICctaW1hZScsICc8aW5maWxlLm1hZT4nLCAnLW9tYWUnLCAnPG91dGZpbGUubWFlPic=

> <r_epik_Ionization_Penalty>
  0.0668

> <r_epik_Ionization_Penalty_Charging>
  0.0647

> <r_epik_Ionization_Penalty_Neutral>
  0.0020

> <r_epik_State_Penalty>
  0.0564

> <r_epik_Charging_Adjusted_Penalty>
0.121171

> <i_epik_Tot_Q>
1

> <i_epik_Tot_abs_Q>
1

> <s_epik_Chemistry_Notes>
This compound has an imine and may undergo hydrolysis.

> <s_lp_Force_Field>
S-OPLS

> <r_lp_Energy>
81.9481

> <b_lp_Chiralities_Consistent>
1

> <s_lp_Variant>
O=C1N(C2=C(C)C=CC=C2C)C3=NC4=CC=CC=C4N3C5=NC(NC6=CC=C(N7CCN(C)CC7)C=C6)=NC=C15-1

> <s_i_glide_gridfile>
glide-grid_1

> <i_i_glide_lignum>
769

> <i_i_glide_rotatable_bonds>
4

> <r_i_docking_score>
-11.6154800637492

> <r_i_glide_ligand_efficiency>
-0.29038700159373

> <r_i_glide_ligand_efficiency_sa>
-0.993109574684539

> <r_i_glide_ligand_efficiency_ln>
-2.47724006927881

> <r_i_glide_gscore>
-11.6718800637492

> <r_i_glide_lipo>
-3.98216188607848

> <r_i_glide_hbond>
-0.75401777043522

> <r_i_glide_metal>
0

> <r_i_glide_rewards>
-2.37123530620523

> <r_i_glide_evdw>
-58.0226097106934

> <r_i_glide_ecoul>
-12.2780017852783

> <r_i_glide_erotb>
0.204291653005812

> <r_i_glide_esite>
-0.0259260007096872

> <r_i_glide_emodel>
-123.10640598536

> <r_i_glide_energy>
-70.3006114959717

> <r_i_glide_einternal>
1.2213237285614

> <i_i_glide_confnum>
15

> <i_i_glide_posenum>
166

> <r_i_glide_eff_state_penalty>
0.0564

> <s_m_subgroup_title>
glide-dock_SP_top1262_2_pv

> <s_m_subgroupid>
glide-dock_SP_top1262_2_pv

> <b_m_subgroup_collapsed>
0

$$$$
O=C(O[C@H]1[C@@H](C2=C(C=C([C@@H]3[C@H](O)CC4=C(O)C=C(O)C=C4O3)C=C(O)C5=O)C5=...
                    3D
 Schrodinger Suite 2021-3.
  0  0  0     0  0            999 V3000
M  V30 BEGIN CTAB
M  V30 COUNTS 81 87 0 0 0
M  V30 BEGIN ATOM
M  V30 1 O  20.5204 43.1567 94.0433 0
M  V30 2 C  21.4054 42.6384 93.1347 0
M  V30 3 C  21.2868 43.0551 91.8122 0
M  V30 4 C  22.3861 41.6969 93.4972 0
M  V30 5 O  22.4860 41.2490 94.7984 0
M  V30 6 C  23.2529 41.1990 92.5161 0
M  V30 7 O  24.2863 40.3567 92.8469 0
M  V30 8 C  23.0839 41.5724 91.1791 0
M  V30 9 C  22.0965 42.4992 90.8212 0
M  V30 10 C  21.8973 42.9112 89.4110 0
M  V30 11 O  21.9447 44.0770 89.0266 0
M  V30 12 O  21.4855 41.8619 88.6772 0
M  V30 13 C  21.1674 41.9547 87.2852 0 CFG=2
M  V30 14 C  19.9663 41.0262 87.0140 0
M  V30 15 C  20.3783 39.5652 87.1124 0
M  V30 16 C  21.7527 39.2482 87.0857 0
M  V30 17 C  19.4508 38.5157 87.1805 0
M  V30 18 O  18.0998 38.7561 87.1616 0
M  V30 19 C  19.8815 37.1903 87.2459 0
M  V30 20 C  21.2415 36.8986 87.2782 0
M  V30 21 C  22.1753 37.9301 87.2314 0
M  V30 22 O  21.6629 35.5986 87.3370 0
M  V30 23 C  22.3586 41.4713 86.4009 0 CFG=2
M  V30 24 O  22.7580 40.2046 86.9729 0
M  V30 25 C  23.5099 42.5028 86.2012 0
M  V30 26 C  23.1569 43.8579 86.1485 0
M  V30 27 C  24.1056 44.8601 86.0626 0
M  V30 28 O  23.6838 46.1693 86.0248 0
M  V30 29 C  25.4591 44.5388 86.0176 0
M  V30 30 O  26.3407 45.5944 85.9784 0
M  V30 31 C  25.8589 43.1833 85.9663 0
M  V30 32 C  24.8739 42.1521 86.0079 0
M  V30 33 C  27.3484 42.9101 85.9126 0
M  V30 34 O  28.1327 43.7030 85.1605 0 CHG=1
M  V30 35 C  27.9489 41.7942 86.6418 0
M  V30 36 O  29.1043 42.1249 87.2884 0
M  V30 37 C  27.5041 40.5294 86.7312 0
M  V30 38 C  26.3199 40.0056 86.0752 0
M  V30 39 C  25.2065 40.7199 85.7892 0
M  V30 40 C  26.3999 38.5581 85.5732 0 CFG=2
M  V30 41 C  27.2540 38.4315 84.2742 0 CFG=2
M  V30 42 O  26.8852 39.3400 83.2494 0
M  V30 43 C  27.2145 36.9835 83.7648 0
M  V30 44 O  25.0765 37.9974 85.4989 0
M  V30 45 C  24.8011 37.0717 84.5152 0
M  V30 46 C  25.7747 36.4820 83.6927 0
M  V30 47 C  23.4535 36.7546 84.3703 0
M  V30 48 C  23.0532 35.8110 83.4369 0
M  V30 49 O  21.7282 35.5566 83.2434 0
M  V30 50 C  24.0047 35.1425 82.6844 0
M  V30 51 C  25.3507 35.4693 82.8213 0
M  V30 52 O  26.2432 34.7616 82.0750 0
M  V30 53 H  19.9254 43.8147 93.6789 0
M  V30 54 H  20.5326 43.7849 91.5490 0
M  V30 55 H  23.0175 40.4581 94.9238 0
M  V30 56 H  24.4840 40.3143 93.7853 0
M  V30 57 H  23.7447 41.1559 90.4293 0
M  V30 58 H  20.8535 42.9697 87.0591 0
M  V30 59 H  19.1346 41.2697 87.6788 0
M  V30 60 H  19.5998 41.1664 85.9976 0
M  V30 61 H  17.8059 39.6734 87.2459 0
M  V30 62 H  19.1513 36.3949 87.2783 0
M  V30 63 H  23.2307 37.7081 87.2448 0
M  V30 64 H  20.9383 34.9699 87.2865 0
M  V30 65 H  22.0136 41.2978 85.3800 0
M  V30 66 H  22.1262 44.1761 86.1736 0
M  V30 67 H  22.7514 46.2297 85.7879 0
M  V30 68 H  25.8488 46.4205 86.0528 0
M  V30 69 H  27.6815 44.4771 84.8172 0
M  V30 70 H  29.4783 41.3572 87.7300 0
M  V30 71 H  28.0824 39.8298 87.3173 0
M  V30 72 H  24.4424 40.2142 85.2196 0
M  V30 73 H  26.8950 37.9534 86.3363 0
M  V30 74 H  28.2923 38.6781 84.5079 0
M  V30 75 H  26.9121 40.2310 83.6075 0
M  V30 76 H  27.7127 36.9105 82.7963 0
M  V30 77 H  27.7847 36.3575 84.4434 0
M  V30 78 H  22.7035 37.2732 84.9343 0
M  V30 79 H  21.6083 34.8428 82.6051 0
M  V30 80 H  23.7024 34.3654 81.9942 0
M  V30 81 H  27.1293 35.1330 82.0646 0
M  V30 END ATOM
M  V30 BEGIN BOND
M  V30 1 1 1 2
M  V30 2 1 1 53
M  V30 3 2 2 3
M  V30 4 1 2 4
M  V30 5 1 3 9
M  V30 6 1 3 54
M  V30 7 1 4 5
M  V30 8 2 4 6
M  V30 9 1 5 55
M  V30 10 1 6 7
M  V30 11 1 6 8
M  V30 12 1 7 56
M  V30 13 2 8 9
M  V30 14 1 8 57
M  V30 15 1 9 10
M  V30 16 2 10 11
M  V30 17 1 10 12
M  V30 18 1 12 13
M  V30 19 1 13 14
M  V30 20 1 13 23
M  V30 21 1 13 58
M  V30 22 1 14 15
M  V30 23 1 14 59
M  V30 24 1 14 60
M  V30 25 2 15 16
M  V30 26 1 15 17
M  V30 27 1 16 24
M  V30 28 1 16 21
M  V30 29 1 17 18
M  V30 30 2 17 19
M  V30 31 1 18 61
M  V30 32 1 19 20
M  V30 33 1 19 62
M  V30 34 2 20 21
M  V30 35 1 20 22
M  V30 36 1 21 63
M  V30 37 1 22 64
M  V30 38 1 23 24
M  V30 39 1 23 25
M  V30 40 1 23 65
M  V30 41 2 25 26
M  V30 42 1 25 32
M  V30 43 1 26 27
M  V30 44 1 26 66
M  V30 45 1 27 28
M  V30 46 2 27 29
M  V30 47 1 28 67
M  V30 48 1 29 30
M  V30 49 1 29 31
M  V30 50 1 30 68
M  V30 51 2 31 32
M  V30 52 1 31 33
M  V30 53 1 32 39
M  V30 54 2 33 34
M  V30 55 1 33 35
M  V30 56 1 34 69
M  V30 57 1 35 36
M  V30 58 2 35 37
M  V30 59 1 36 70
M  V30 60 1 37 38
M  V30 61 1 37 71
M  V30 62 2 38 39
M  V30 63 1 38 40
M  V30 64 1 39 72
M  V30 65 1 40 41
M  V30 66 1 40 44
M  V30 67 1 40 73
M  V30 68 1 41 42
M  V30 69 1 41 43
M  V30 70 1 41 74
M  V30 71 1 42 75
M  V30 72 1 43 46
M  V30 73 1 43 76
M  V30 74 1 43 77
M  V30 75 1 44 45
M  V30 76 2 45 46
M  V30 77 1 45 47
M  V30 78 1 46 51
M  V30 79 2 47 48
M  V30 80 1 47 78
M  V30 81 1 48 49
M  V30 82 1 48 50
M  V30 83 1 49 79
M  V30 84 2 50 51
M  V30 85 1 50 80
M  V30 86 1 51 52
M  V30 87 1 52 81
M  V30 END BOND
M  V30 END CTAB
M  END
> <s_m_entry_id>
7

> <s_m_entry_name>
result.6059

> <s_m_Source_Path>
D:\OneDrive - zju.edu.cn\DOC\A-Finished\LCK_VS\Planet\LCK-8617

> <s_m_Source_File>
glide-dock_SP_top1262_2_pv.maegz

> <i_m_Source_File_Index>
7

> <PLANET_affinity>
8.576

> <i_lp_mmshare_version>
54117

> <i_f3d_flags>
0

> <s_epik_input>
W09IXWMxYyhbT0hdKVtjSF1jKFtjSF1jMVtPSF0pQyg9TylPW0NASF0oW0NIMl0yKVtDQEhdKE9jKGMyMylbY0hdYyhbT0hdKVtjSF1jM1tPSF0pYyhbY0hdYyhbT0hdKWM0W09IXSljKGM0NSlbY0hdYyhbY0hdYyhbT0hdKWM1PVtPSCtdKVtDQEBIXShPNilbQ0BIXShbT0hdKVtDSDJdYyhjNjcpYyhbT0hdKVtjSF1jKFtjSF03KVtPSF0=

> <s_epik_cmdline>
J2VwaWtfcHl0aG9uJywgJy1waCcsICc3LjAnLCAnLXRuJywgJzgnLCAnLW1hJywgJzUwMCcsICctaW1hZScsICc8aW5maWxlLm1hZT4nLCAnLW9tYWUnLCAnPG91dGZpbGUubWFlPic=

> <r_epik_Ionization_Penalty>
  0.0728

> <r_epik_Ionization_Penalty_Charging>
  0.0000

> <r_epik_Ionization_Penalty_Neutral>
  0.0728

> <r_epik_State_Penalty>
  0.0539

> <r_epik_Charging_Adjusted_Penalty>
0.0539193

> <i_epik_Tot_Q>
1

> <i_epik_Tot_abs_Q>
1

> <s_epik_Chemistry_Notes>
This compound has an ester and may undergo hydrolysis at high or low pH.

> <s_lp_Force_Field>
S-OPLS

> <r_lp_Energy>
62.892

> <b_lp_Chiralities_Consistent>
1

> <s_lp_Variant>
O=C(O[C@H]1[C@@H](C2=C(C=C([C@@H]3[C@H](O)CC4=C(O)C=C(O)C=C4O3)C=C(O)C5=O)C5=...-1

> <s_i_glide_gridfile>
glide-grid_1

> <i_i_glide_lignum>
755

> <i_i_glide_rotatable_bonds>
16

> <r_i_docking_score>
-10.714281665039

> <r_i_glide_ligand_efficiency>
-0.206043878173826

> <r_i_glide_ligand_efficiency_sa>
-0.769061073064785

> <r_i_glide_ligand_efficiency_ln>
-2.16395763852818

> <r_i_glide_gscore>
-10.768181665039

> <r_i_glide_lipo>
-3.29361827813427

> <r_i_glide_hbond>
-0.722724986041123

> <r_i_glide_metal>
0

> <r_i_glide_rewards>
-0.553431949688548

> <r_i_glide_evdw>
-53.9418601989746

> <r_i_glide_ecoul>
-23.2866020202637

> <r_i_glide_erotb>
0.0270540670966933

> <r_i_glide_esite>
-0.035377205283444

> <r_i_glide_emodel>
-116.575839324751

> <r_i_glide_energy>
-77.2284622192383

> <r_i_glide_einternal>
12.3938436508179

> <i_i_glide_confnum>
37

> <i_i_glide_posenum>
274

> <r_i_glide_eff_state_penalty>
0.0539

> <r_lp_tautomer_probability>
1

> <s_m_subgroup_title>
glide-dock_SP_top1262_2_pv

> <s_m_subgroupid>
glide-dock_SP_top1262_2_pv

> <b_m_subgroup_collapsed>
0

$$$$
CC1=CC(NC2=NC(N([C@@H]3CC[C@@H](NC(CC)=O)CC3)C(N(C4=C(Cl)C=CC=C4)C5)=O)=C5C=N...
                    3D
 Schrodinger Suite 2021-3.
  0  0  0     0  0            999 V3000
M  V30 BEGIN CTAB
M  V30 COUNTS 86 91 0 0 0
M  V30 BEGIN ATOM
M  V30 1 C  33.5310 36.3066 84.7944 0
M  V30 2 C  33.7366 36.2333 86.3277 0
M  V30 3 N  33.9851 37.6468 86.8934 0 CHG=1
M  V30 4 C  34.1121 37.5965 88.4322 0
M  V30 5 C  32.8290 38.5662 86.4518 0
M  V30 6 C  32.8339 38.6034 84.9092 0
M  V30 7 N  32.5232 37.2855 84.3250 0
M  V30 8 C  31.2533 36.9266 83.8515 0
M  V30 9 C  30.1138 37.5942 84.3338 0
M  V30 10 C  28.8284 37.2344 83.9335 0
M  V30 11 C  28.6287 36.1913 83.0267 0
M  V30 12 C  29.7525 35.5568 82.4969 0
M  V30 13 C  31.0505 35.8976 82.9020 0
M  V30 14 C  32.2073 35.1510 82.2422 0
M  V30 15 N  27.3600 35.7323 82.6188 0
M  V30 16 C  26.0538 35.8951 83.1054 0
M  V30 17 N  25.8125 36.7394 84.1372 0
M  V30 18 N  25.1007 35.1737 82.4629 0
M  V30 19 C  23.8209 35.3337 82.8927 0
M  V30 20 C  23.4753 36.2095 83.9271 0
M  V30 21 C  24.5148 36.9278 84.5187 0
M  V30 22 C  22.0615 36.4970 84.3869 0
M  V30 23 N  22.0264 37.0562 85.7597 0
M  V30 24 C  20.7637 37.0111 86.3910 0
M  V30 25 C  20.4525 36.0000 87.3177 0
M  V30 26 Cl 21.5918 34.7573 87.7133 0
M  V30 27 C  19.2021 35.9937 87.9493 0
M  V30 28 C  18.2565 36.9750 87.6425 0
M  V30 29 C  18.5629 37.9772 86.7232 0
M  V30 30 C  19.8087 37.9954 86.0957 0
M  V30 31 C  23.0154 37.8808 86.2531 0
M  V30 32 O  22.8459 38.5422 87.2844 0
M  V30 33 N  24.2029 37.8613 85.5515 0
M  V30 34 C  25.2899 38.7972 85.9855 0 CFG=2
M  V30 35 C  26.0800 38.3644 87.2443 0
M  V30 36 C  27.2928 39.2644 87.5539 0
M  V30 37 C  27.0064 40.7855 87.5138 0 CFG=2
M  V30 38 C  26.2191 41.1804 86.2448 0
M  V30 39 C  24.9747 40.3127 85.9729 0
M  V30 40 N  28.2175 41.5903 87.6839 0
M  V30 41 C  28.6989 42.0686 88.8424 0
M  V30 42 O  28.1143 41.9568 89.9197 0
M  V30 43 C  30.0463 42.7981 88.7747 0
M  V30 44 C  31.0916 42.2138 89.7418 0
M  V30 45 H  33.2400 35.2993 84.5115 0
M  V30 46 H  34.4792 36.4904 84.2846 0
M  V30 47 H  34.6201 35.6395 86.5735 0
M  V30 48 H  32.8836 35.8007 86.8484 0
M  V30 49 H  33.1956 37.1790 88.8482 0
M  V30 50 H  34.9671 36.9618 88.6665 0
M  V30 51 H  34.2786 38.6171 88.7835 0
M  V30 52 H  33.0054 39.5539 86.8832 0
M  V30 53 H  31.8965 38.1571 86.8443 0
M  V30 54 H  33.8001 38.9447 84.5300 0
M  V30 55 H  32.1215 39.3517 84.5587 0
M  V30 56 H  30.2021 38.3879 85.0604 0
M  V30 57 H  28.0027 37.7843 84.3505 0
M  V30 58 H  29.6243 34.7593 81.7767 0
M  V30 59 H  33.0791 35.7928 82.1159 0
M  V30 60 H  32.4800 34.2616 82.8094 0
M  V30 61 H  31.9491 34.8211 81.2435 0
M  V30 62 H  27.3866 35.1566 81.7880 0
M  V30 63 H  23.0606 34.7636 82.3737 0
M  V30 64 H  21.4249 35.6171 84.3111 0
M  V30 65 H  21.6322 37.2411 83.7137 0
M  V30 66 H  18.9477 35.2112 88.6506 0
M  V30 67 H  17.2827 36.9645 88.1138 0
M  V30 68 H  17.8335 38.7445 86.5045 0
M  V30 69 H  20.0377 38.7849 85.3941 0
M  V30 70 H  26.0322 38.7642 85.1896 0
M  V30 71 H  25.4099 38.3580 88.1057 0
M  V30 72 H  26.4295 37.3375 87.1228 0
M  V30 73 H  28.0659 39.0400 86.8164 0
M  V30 74 H  27.7024 38.9900 88.5284 0
M  V30 75 H  26.3216 40.9912 88.3425 0
M  V30 76 H  25.9237 42.2307 86.3017 0
M  V30 77 H  26.8794 41.0947 85.3794 0
M  V30 78 H  24.2161 40.5533 86.7184 0
M  V30 79 H  24.5527 40.5906 85.0049 0
M  V30 80 H  28.7742 41.7275 86.8531 0
M  V30 81 H  29.8696 43.8482 89.0100 0
M  V30 82 H  30.4422 42.7809 87.7566 0
M  V30 83 H  32.0398 42.7448 89.6388 0
M  V30 84 H  31.2926 41.1613 89.5332 0
M  V30 85 H  30.7825 42.3187 90.7845 0
M  V30 86 H  34.8415 38.0026 86.4879 0
M  V30 END ATOM
M  V30 BEGIN BOND
M  V30 1 1 1 2
M  V30 2 1 1 7
M  V30 3 1 1 45
M  V30 4 1 1 46
M  V30 5 1 2 3
M  V30 6 1 2 47
M  V30 7 1 2 48
M  V30 8 1 3 4
M  V30 9 1 3 5
M  V30 10 1 3 86
M  V30 11 1 4 49
M  V30 12 1 4 50
M  V30 13 1 4 51
M  V30 14 1 5 6
M  V30 15 1 5 52
M  V30 16 1 5 53
M  V30 17 1 6 7
M  V30 18 1 6 54
M  V30 19 1 6 55
M  V30 20 1 7 8
M  V30 21 2 8 9
M  V30 22 1 8 13
M  V30 23 1 9 10
M  V30 24 1 9 56
M  V30 25 2 10 11
M  V30 26 1 10 57
M  V30 27 1 11 12
M  V30 28 1 11 15
M  V30 29 2 12 13
M  V30 30 1 12 58
M  V30 31 1 13 14
M  V30 32 1 14 59
M  V30 33 1 14 60
M  V30 34 1 14 61
M  V30 35 1 15 16
M  V30 36 1 15 62
M  V30 37 2 16 17
M  V30 38 1 16 18
M  V30 39 1 17 21
M  V30 40 2 18 19
M  V30 41 1 19 20
M  V30 42 1 19 63
M  V30 43 2 20 21
M  V30 44 1 20 22
M  V30 45 1 21 33
M  V30 46 1 22 23
M  V30 47 1 22 64
M  V30 48 1 22 65
M  V30 49 1 23 24
M  V30 50 1 23 31
M  V30 51 2 24 25
M  V30 52 1 24 30
M  V30 53 1 25 26
M  V30 54 1 25 27
M  V30 55 2 27 28
M  V30 56 1 27 66
M  V30 57 1 28 29
M  V30 58 1 28 67
M  V30 59 2 29 30
M  V30 60 1 29 68
M  V30 61 1 30 69
M  V30 62 2 31 32
M  V30 63 1 31 33
M  V30 64 1 33 34
M  V30 65 1 34 35
M  V30 66 1 34 39
M  V30 67 1 34 70
M  V30 68 1 35 36
M  V30 69 1 35 71
M  V30 70 1 35 72
M  V30 71 1 36 37
M  V30 72 1 36 73
M  V30 73 1 36 74
M  V30 74 1 37 38
M  V30 75 1 37 40
M  V30 76 1 37 75
M  V30 77 1 38 39
M  V30 78 1 38 76
M  V30 79 1 38 77
M  V30 80 1 39 78
M  V30 81 1 39 79
M  V30 82 1 40 41
M  V30 83 1 40 80
M  V30 84 2 41 42
M  V30 85 1 41 43
M  V30 86 1 43 44
M  V30 87 1 43 81
M  V30 88 1 43 82
M  V30 89 1 44 83
M  V30 90 1 44 84
M  V30 91 1 44 85
M  V30 END BOND
M  V30 END CTAB
M  END
> <s_m_entry_id>
10

> <s_m_entry_name>
result.799

> <s_m_Source_Path>
D:\OneDrive - zju.edu.cn\DOC\A-Finished\LCK_VS\Planet\LCK-8617

> <s_m_Source_File>
glide-dock_SP_top1262_2_pv.maegz

> <i_m_Source_File_Index>
10

> <PLANET_affinity>
10.678

> <i_lp_mmshare_version>
54117

> <i_f3d_flags>
0

> <s_epik_input>
W0NIM11OMVtDSDJdW0NIMl1OKFtDSDJdW0NIMl0xKWMyW2NIXVtjSF1jKFtjSF1jMltDSDNdKVtOSF1jKG5bY0hdMyluYyhjMzQpTihDKD1PKU4oW0NIMl00KWM1YyhDbClbY0hdW2NIXVtjSF1bY0hdNSlbQ0BASF02W0NIMl1bQ0gyXVtDQEhdKFtDSDJdW0NIMl02KVtOSF1DKD1PKVtDSDJdW0NIM10=

> <s_epik_cmdline>
J2VwaWtfcHl0aG9uJywgJy1waCcsICc3LjAnLCAnLXRuJywgJzgnLCAnLW1hJywgJzUwMCcsICctaW1hZScsICc8aW5maWxlLm1hZT4nLCAnLW9tYWUnLCAnPG91dGZpbGUubWFlPic=

> <r_epik_Ionization_Penalty>
  0.0755

> <r_epik_Ionization_Penalty_Charging>
  0.0647

> <r_epik_Ionization_Penalty_Neutral>
  0.0107

> <r_epik_State_Penalty>
  0.3187

> <r_epik_Charging_Adjusted_Penalty>
0.383454

> <i_epik_Tot_Q>
1

> <i_epik_Tot_abs_Q>
1

> <s_lp_Force_Field>
S-OPLS

> <r_lp_Energy>
106.1

> <b_lp_Chiralities_Consistent>
1

> <s_lp_Variant>
CC1=CC(NC2=NC(N([C@@H]3CC[C@@H](NC(CC)=O)CC3)C(N(C4=C(Cl)C=CC=C4)C5)=O)=C5C=N...-1

> <s_i_glide_gridfile>
glide-grid_1

> <i_i_glide_lignum>
183

> <i_i_glide_rotatable_bonds>
8

> <r_i_docking_score>
-10.3201889698017

> <r_i_glide_ligand_efficiency>
-0.234549749313676

> <r_i_glide_ligand_efficiency_sa>
-0.828042315996191

> <r_i_glide_ligand_efficiency_ln>
-2.15714462834733

> <r_i_glide_gscore>
-10.6388889698017

> <r_i_glide_lipo>
-3.84660636059525

> <r_i_glide_hbond>
-0.558011808512235

> <r_i_glide_metal>
0

> <r_i_glide_rewards>
-2.00959351854412

> <r_i_glide_evdw>
-56.9386138916016

> <r_i_glide_ecoul>
-10.3529167175293

> <r_i_glide_erotb>
0.179085166113513

> <r_i_glide_esite>
-0.00389424605416722

> <r_i_glide_emodel>
-110.429067468184

> <r_i_glide_energy>
-67.2915306091309

> <r_i_glide_einternal>
3.78642797470093

> <i_i_glide_confnum>
175

> <i_i_glide_posenum>
223

> <r_i_glide_eff_state_penalty>
0.3187

> <r_lp_tautomer_probability>
1

> <s_m_subgroup_title>
glide-dock_SP_top1262_2_pv

> <s_m_subgroupid>
glide-dock_SP_top1262_2_pv

> <b_m_subgroup_collapsed>
0

$$$$
FC1=CC(NC2=NC=C3C(N(CC)C(C(C4=CC=C(Cl)C=C4Cl)=C3)=O)=N2)=CC=C1N5CCNCC5
                    3D
 Schrodinger Suite 2021-3.
  0  0  0     0  0            999 V3000
M  V30 BEGIN CTAB
M  V30 COUNTS 59 63 0 0 0
M  V30 BEGIN ATOM
M  V30 1 C  32.6889 37.6866 85.9827 0
M  V30 2 C  33.4344 36.5235 86.6859 0
M  V30 3 N  34.7643 36.2308 85.9705 0 CHG=1
M  V30 4 C  34.5055 35.9919 84.4719 0
M  V30 5 C  33.7796 37.2213 83.8798 0
M  V30 6 N  32.4897 37.4879 84.5346 0
M  V30 7 C  31.2568 37.1223 83.9986 0
M  V30 8 C  31.1345 36.0019 83.1620 0
M  V30 9 C  29.8977 35.6267 82.6374 0
M  V30 10 C  28.7508 36.3565 82.9427 0
M  V30 11 C  28.8694 37.5065 83.7275 0
M  V30 12 C  30.1050 37.8906 84.2443 0
M  V30 13 F  30.1634 39.0148 84.9970 0
M  V30 14 N  27.5243 35.8954 82.4436 0
M  V30 15 C  26.2255 35.9509 82.9605 0
M  V30 16 N  25.2981 35.2577 82.2574 0
M  V30 17 C  24.0204 35.2874 82.7122 0
M  V30 18 N  25.9733 36.6515 84.0964 0
M  V30 19 C  24.6832 36.6817 84.5360 0
M  V30 20 C  23.6682 35.9965 83.8577 0
M  V30 21 N  24.3447 37.4624 85.6829 0
M  V30 22 C  25.4330 38.1913 86.3790 0
M  V30 23 C  25.7135 39.5783 85.7744 0
M  V30 24 C  23.0655 37.6338 86.1635 0
M  V30 25 O  22.7988 38.3573 87.1294 0
M  V30 26 C  22.0227 36.8715 85.4546 0
M  V30 27 C  22.3028 36.1126 84.3683 0
M  V30 28 C  20.6273 36.9469 85.9556 0
M  V30 29 C  20.3194 36.3613 87.1924 0
M  V30 30 C  19.0336 36.4508 87.7202 0
M  V30 31 C  18.0400 37.1386 87.0271 0
M  V30 32 Cl 16.4337 37.1567 87.6431 0
M  V30 33 C  18.3305 37.7347 85.8033 0
M  V30 34 C  19.6140 37.6338 85.2613 0
M  V30 35 Cl 19.9058 38.3564 83.7214 0
M  V30 36 H  33.2010 38.6358 86.1462 0
M  V30 37 H  31.7200 37.7966 86.4692 0
M  V30 38 H  32.8830 35.5835 86.6727 0
M  V30 39 H  33.6867 36.7604 87.7209 0
M  V30 40 H  35.1696 35.3852 86.3698 0
M  V30 41 H  33.9209 35.0717 84.4023 0
M  V30 42 H  35.4830 35.8277 84.0184 0
M  V30 43 H  33.6200 37.0572 82.8120 0
M  V30 44 H  34.4035 38.1160 83.9420 0
M  V30 45 H  31.9938 35.3925 82.9282 0
M  V30 46 H  29.8338 34.7449 82.0130 0
M  V30 47 H  28.0100 38.1189 83.9429 0
M  V30 48 H  27.5854 35.4072 81.5535 0
M  V30 49 H  23.2818 34.7564 82.1289 0
M  V30 50 H  25.2129 38.3044 87.4425 0
M  V30 51 H  26.3515 37.6017 86.3556 0
M  V30 52 H  26.5370 40.0642 86.2999 0
M  V30 53 H  25.9914 39.5077 84.7225 0
M  V30 54 H  24.8427 40.2310 85.8558 0
M  V30 55 H  21.5120 35.5757 83.8630 0
M  V30 56 H  21.0815 35.8281 87.7436 0
M  V30 57 H  18.8035 35.9758 88.6627 0
M  V30 58 H  17.5515 38.2528 85.2623 0
M  V30 59 H  35.4176 36.9879 86.1036 0
M  V30 END ATOM
M  V30 BEGIN BOND
M  V30 1 1 1 2
M  V30 2 1 1 6
M  V30 3 1 1 36
M  V30 4 1 1 37
M  V30 5 1 2 3
M  V30 6 1 2 38
M  V30 7 1 2 39
M  V30 8 1 3 4
M  V30 9 1 3 40
M  V30 10 1 3 59
M  V30 11 1 4 5
M  V30 12 1 4 41
M  V30 13 1 4 42
M  V30 14 1 5 6
M  V30 15 1 5 43
M  V30 16 1 5 44
M  V30 17 1 6 7
M  V30 18 2 7 8
M  V30 19 1 7 12
M  V30 20 1 8 9
M  V30 21 1 8 45
M  V30 22 2 9 10
M  V30 23 1 9 46
M  V30 24 1 10 11
M  V30 25 1 10 14
M  V30 26 2 11 12
M  V30 27 1 11 47
M  V30 28 1 12 13
M  V30 29 1 14 15
M  V30 30 1 14 48
M  V30 31 1 15 16
M  V30 32 2 15 18
M  V30 33 2 16 17
M  V30 34 1 17 20
M  V30 35 1 17 49
M  V30 36 1 18 19
M  V30 37 2 19 20
M  V30 38 1 19 21
M  V30 39 1 20 27
M  V30 40 1 21 22
M  V30 41 1 21 24
M  V30 42 1 22 23
M  V30 43 1 22 50
M  V30 44 1 22 51
M  V30 45 1 23 52
M  V30 46 1 23 53
M  V30 47 1 23 54
M  V30 48 2 24 25
M  V30 49 1 24 26
M  V30 50 2 26 27
M  V30 51 1 26 28
M  V30 52 1 27 55
M  V30 53 2 28 29
M  V30 54 1 28 34
M  V30 55 1 29 30
M  V30 56 1 29 56
M  V30 57 2 30 31
M  V30 58 1 30 57
M  V30 59 1 31 32
M  V30 60 1 31 33
M  V30 61 2 33 34
M  V30 62 1 33 58
M  V30 63 1 34 35
M  V30 END BOND
M  V30 END CTAB
M  END
> <s_m_entry_id>
12

> <s_m_entry_name>
result.625

> <s_m_Source_Path>
D:\OneDrive - zju.edu.cn\DOC\A-Finished\LCK_VS\Planet\LCK-8617

> <s_m_Source_File>
glide-dock_SP_top1262_2_pv.maegz

> <i_m_Source_File_Index>
12

> <PLANET_affinity>
8.324

> <i_lp_mmshare_version>
54117

> <i_f3d_flags>
0

> <s_epik_input>
W0NIMl0xW0NIMl1bTkhdW0NIMl1bQ0gyXU4xYzJbY0hdW2NIXWMoW2NIXWMyRilbTkhdYyhuMyluW2NIXWMoYzM0KVtjSF1jKGMoPU8pbjRbQ0gyXVtDSDNdKS1jNVtjSF1bY0hdYyhDbClbY0hdYzVDbA==

> <s_epik_cmdline>
J2VwaWtfcHl0aG9uJywgJy1waCcsICc3LjAnLCAnLXRuJywgJzgnLCAnLW1hJywgJzUwMCcsICctaW1hZScsICc8aW5maWxlLm1hZT4nLCAnLW9tYWUnLCAnPG91dGZpbGUubWFlPic=

> <r_epik_Ionization_Penalty>
  0.0086

> <r_epik_Ionization_Penalty_Charging>
  0.0086

> <r_epik_Ionization_Penalty_Neutral>
  0.0000

> <r_epik_State_Penalty>
  0.0065

> <r_epik_Charging_Adjusted_Penalty>
0.0150378

> <i_epik_Tot_Q>
1

> <i_epik_Tot_abs_Q>
1

> <s_epik_Chemistry_Notes>
This compound has an imine and may undergo hydrolysis.

> <s_lp_Force_Field>
S-OPLS

> <r_lp_Energy>
79.2347

> <b_lp_Chiralities_Consistent>
1

> <s_lp_Variant>
FC1=CC(NC2=NC=C3C(N(CC)C(C(C4=CC=C(Cl)C=C4Cl)=C3)=O)=N2)=CC=C1N5CCNCC5-1

> <s_i_glide_gridfile>
glide-grid_1

> <i_i_glide_lignum>
948

> <i_i_glide_rotatable_bonds>
5

> <r_i_docking_score>
-10.2151246400992

> <r_i_glide_ligand_efficiency>
-0.291860704002833

> <r_i_glide_ligand_efficiency_sa>
-0.954695715000167

> <r_i_glide_ligand_efficiency_ln>
-2.24244657097821

> <r_i_glide_gscore>
-10.2216246400992

> <r_i_glide_lipo>
-3.69412860407968

> <r_i_glide_hbond>
-0.756092191763003

> <r_i_glide_metal>
0

> <r_i_glide_rewards>
-2.07226608108307

> <r_i_glide_evdw>
-48.1387481689453

> <r_i_glide_ecoul>
-9.39980792999268

> <r_i_glide_erotb>
0.217054942485635

> <r_i_glide_esite>
-0.0992841077128893

> <r_i_glide_emodel>
-98.474745745875

> <r_i_glide_energy>
-57.538556098938

> <r_i_glide_einternal>
2.34805870056152

> <i_i_glide_confnum>
58

> <i_i_glide_posenum>
370

> <r_i_glide_eff_state_penalty>
0.0065

> <s_m_subgroup_title>
glide-dock_SP_top1262_2_pv

> <s_m_subgroupid>
glide-dock_SP_top1262_2_pv

> <b_m_subgroup_collapsed>
0

$$$$
COCCNCCC1=CC(NC2=NC=C3C[C@@H](C4=CC=CC=C4F)C5=CC=CC=C5C3=N2)=CC=C1
                    3D
 Schrodinger Suite 2021-3.
  0  0  0     0  0            999 V3000
M  V30 BEGIN CTAB
M  V30 COUNTS 65 69 0 0 0
M  V30 BEGIN ATOM
M  V30 1 C  34.4028 29.7948 81.5775 0
M  V30 2 O  33.2868 30.2449 82.3382 0
M  V30 3 C  33.5839 31.2349 83.3201 0
M  V30 4 C  34.1094 32.5464 82.6924 0
M  V30 5 N  34.1325 33.6922 83.7240 0 CHG=1
M  V30 6 C  32.7826 34.3899 83.9938 0
M  V30 7 C  32.3772 35.3037 82.8158 0
M  V30 8 C  31.1193 36.1117 83.1155 0
M  V30 9 C  29.8645 35.6494 82.7071 0
M  V30 10 C  28.6991 36.3561 83.0184 0
M  V30 11 C  28.8035 37.5684 83.7117 0
M  V30 12 C  30.0529 38.0464 84.1079 0
M  V30 13 C  31.2082 37.3187 83.8157 0
M  V30 14 N  27.4743 35.8035 82.6150 0
M  V30 15 C  26.1612 35.9245 83.0888 0
M  V30 16 N  25.2546 35.1574 82.4435 0
M  V30 17 C  23.9773 35.1966 82.9006 0
M  V30 18 N  25.8777 36.7265 84.1423 0
M  V30 19 C  24.5817 36.7817 84.5693 0
M  V30 20 C  23.5820 35.9816 83.9877 0
M  V30 21 C  24.2311 37.7196 85.6862 0
M  V30 22 C  22.8702 37.9989 85.9671 0
M  V30 23 C  22.5820 38.9497 86.9615 0
M  V30 24 C  23.5895 39.5964 87.6697 0
M  V30 25 C  24.9207 39.3013 87.4039 0
M  V30 26 C  25.2393 38.3769 86.4148 0
M  V30 27 C  21.7528 37.3516 85.1228 0 CFG=1
M  V30 28 C  22.1718 35.9643 84.5656 0
M  V30 29 C  20.3917 37.3085 85.8466 0
M  V30 30 C  20.2034 36.4407 86.9328 0
M  V30 31 C  19.0025 36.4378 87.6427 0
M  V30 32 C  17.9715 37.3007 87.2753 0
M  V30 33 C  18.1440 38.1673 86.1964 0
M  V30 34 C  19.3445 38.1724 85.4814 0
M  V30 35 F  19.4827 39.0331 84.4463 0
M  V30 36 H  34.0876 28.9979 80.9030 0
M  V30 37 H  35.1927 29.3990 82.2195 0
M  V30 38 H  34.8186 30.5902 80.9578 0
M  V30 39 H  32.6582 31.4123 83.8685 0
M  V30 40 H  34.2937 30.8335 84.0428 0
M  V30 41 H  35.1508 32.4462 82.3895 0
M  V30 42 H  33.5203 32.8798 81.8364 0
M  V30 43 H  34.4835 33.3229 84.6067 0
M  V30 44 H  32.0733 33.5914 84.2082 0
M  V30 45 H  32.9704 34.9572 84.9084 0
M  V30 46 H  33.1792 36.0028 82.5768 0
M  V30 47 H  32.2035 34.7271 81.9059 0
M  V30 48 H  29.7940 34.7226 82.1550 0
M  V30 49 H  27.9282 38.1554 83.9397 0
M  V30 50 H  30.1244 38.9831 84.6460 0
M  V30 51 H  32.1681 37.6988 84.1376 0
M  V30 52 H  27.5471 35.1864 81.8137 0
M  V30 53 H  23.2824 34.5416 82.4014 0
M  V30 54 H  21.5583 39.2192 87.1781 0
M  V30 55 H  23.3373 40.3283 88.4236 0
M  V30 56 H  25.7059 39.7991 87.9531 0
M  V30 57 H  26.2813 38.1796 86.2131 0
M  V30 58 H  21.6281 38.0059 84.2590 0
M  V30 59 H  21.4660 35.6372 83.8010 0
M  V30 60 H  22.1365 35.2109 85.3552 0
M  V30 61 H  20.9958 35.7768 87.2503 0
M  V30 62 H  18.8710 35.7677 88.4803 0
M  V30 63 H  17.0436 37.3096 87.8313 0
M  V30 64 H  17.3451 38.8429 85.9241 0
M  V30 65 H  34.7966 34.3966 83.4278 0
M  V30 END ATOM
M  V30 BEGIN BOND
M  V30 1 1 1 2
M  V30 2 1 1 36
M  V30 3 1 1 37
M  V30 4 1 1 38
M  V30 5 1 2 3
M  V30 6 1 3 4
M  V30 7 1 3 39
M  V30 8 1 3 40
M  V30 9 1 4 5
M  V30 10 1 4 41
M  V30 11 1 4 42
M  V30 12 1 5 6
M  V30 13 1 5 43
M  V30 14 1 5 65
M  V30 15 1 6 7
M  V30 16 1 6 44
M  V30 17 1 6 45
M  V30 18 1 7 8
M  V30 19 1 7 46
M  V30 20 1 7 47
M  V30 21 2 8 9
M  V30 22 1 8 13
M  V30 23 1 9 10
M  V30 24 1 9 48
M  V30 25 2 10 11
M  V30 26 1 10 14
M  V30 27 1 11 12
M  V30 28 1 11 49
M  V30 29 2 12 13
M  V30 30 1 12 50
M  V30 31 1 13 51
M  V30 32 1 14 15
M  V30 33 1 14 52
M  V30 34 2 15 16
M  V30 35 1 15 18
M  V30 36 1 16 17
M  V30 37 2 17 20
M  V30 38 1 17 53
M  V30 39 2 18 19
M  V30 40 1 19 20
M  V30 41 1 19 21
M  V30 42 1 20 28
M  V30 43 2 21 22
M  V30 44 1 21 26
M  V30 45 1 22 23
M  V30 46 1 22 27
M  V30 47 2 23 24
M  V30 48 1 23 54
M  V30 49 1 24 25
M  V30 50 1 24 55
M  V30 51 2 25 26
M  V30 52 1 25 56
M  V30 53 1 26 57
M  V30 54 1 27 28
M  V30 55 1 27 29
M  V30 56 1 27 58
M  V30 57 1 28 59
M  V30 58 1 28 60
M  V30 59 2 29 30
M  V30 60 1 29 34
M  V30 61 1 30 31
M  V30 62 1 30 61
M  V30 63 2 31 32
M  V30 64 1 31 62
M  V30 65 1 32 33
M  V30 66 1 32 63
M  V30 67 2 33 34
M  V30 68 1 33 64
M  V30 69 1 34 35
M  V30 END BOND
M  V30 END CTAB
M  END
> <s_m_entry_id>
15

> <s_m_entry_name>
result.2207

> <s_m_Source_Path>
D:\OneDrive - zju.edu.cn\DOC\A-Finished\LCK_VS\Planet\LCK-8617

> <s_m_Source_File>
glide-dock_SP_top1262_2_pv.maegz

> <i_m_Source_File_Index>
15

> <PLANET_affinity>
7.913

> <i_lp_mmshare_version>
54117

> <i_f3d_flags>
0

> <s_epik_input>
W0NIM11PW0NIMl1bQ0gyXVtOSF1bQ0gyXVtDSDJdYzFbY0hdYyhbY0hdW2NIXVtjSF0xKVtOSF1jKG4yKW5bY0hdYyhjMjMpW0NIMl1bQ0BIXShjNGMzW2NIXVtjSF1bY0hdW2NIXTQpYzVbY0hdW2NIXVtjSF1bY0hdYzVG

> <s_epik_cmdline>
J2VwaWtfcHl0aG9uJywgJy1waCcsICc3LjAnLCAnLXRuJywgJzgnLCAnLW1hJywgJzUwMCcsICctaW1hZScsICc8aW5maWxlLm1hZT4nLCAnLW9tYWUnLCAnPG91dGZpbGUubWFlPic=

> <r_epik_Ionization_Penalty>
  0.0032

> <r_epik_Ionization_Penalty_Charging>
  0.0030

> <r_epik_Ionization_Penalty_Neutral>
  0.0002

> <r_epik_State_Penalty>
  0.0021

> <r_epik_Charging_Adjusted_Penalty>
0.00505905

> <i_epik_Tot_Q>
1

> <i_epik_Tot_abs_Q>
1

> <s_lp_Force_Field>
S-OPLS

> <r_lp_Energy>
58.2151

> <b_lp_Chiralities_Consistent>
1

> <s_lp_Variant>
COCCNCCC1=CC(NC2=NC=C3C[C@@H](C4=CC=CC=C4F)C5=CC=CC=C5C3=N2)=CC=C1-1

> <s_i_glide_gridfile>
glide-grid_1

> <i_i_glide_lignum>
1401

> <i_i_glide_rotatable_bonds>
9

> <r_i_docking_score>
-10.1539792862391

> <r_i_glide_ligand_efficiency>
-0.290113693892545

> <r_i_glide_ligand_efficiency_sa>
-0.948981129091618

> <r_i_glide_ligand_efficiency_ln>
-2.22902380875791

> <r_i_glide_gscore>
-10.1560792862391

> <r_i_glide_lipo>
-3.69881447363287

> <r_i_glide_hbond>
-0.841240586001486

> <r_i_glide_metal>
0

> <r_i_glide_rewards>
-1.82353010287035

> <r_i_glide_evdw>
-49.9366645812988

> <r_i_glide_ecoul>
-11.5470952987671

> <r_i_glide_erotb>
0.51298117298443

> <r_i_glide_esite>
-0.0765777728388046

> <r_i_glide_emodel>
-103.348957179238

> <r_i_glide_energy>
-61.4837598800659

> <r_i_glide_einternal>
9.82724475860596

> <i_i_glide_confnum>
236

> <i_i_glide_posenum>
18

> <r_i_glide_eff_state_penalty>
0.0021

> <r_lp_tautomer_probability>
1

> <s_m_subgroup_title>
glide-dock_SP_top1262_2_pv

> <s_m_subgroupid>
glide-dock_SP_top1262_2_pv

> <b_m_subgroup_collapsed>
0

$$$$
O=C1N(C2CCCCC2)C3=NC(NC4=CC=C(N5CCN(C)CC5)C=C4)=NC=C3CN1C6=C(C)C=CC=C6C
                    3D
 Schrodinger Suite 2021-3.
  0  0  0     0  0            999 V3000
M  V30 BEGIN CTAB
M  V30 COUNTS 79 84 0 0 0
M  V30 BEGIN ATOM
M  V30 1 C  26.2631 38.3656 86.9827 0
M  V30 2 C  27.2870 39.4366 87.4045 0
M  V30 3 C  27.7948 40.2842 86.2273 0
M  V30 4 C  26.6334 40.9210 85.4503 0
M  V30 5 C  25.6108 39.8791 84.9592 0
M  V30 6 C  25.1246 38.9153 86.0798 0
M  V30 7 N  24.0717 37.9285 85.6848 0
M  V30 8 C  22.9106 37.9243 86.4278 0
M  V30 9 O  22.7854 38.5244 87.5029 0
M  V30 10 N  21.8844 37.1626 85.9090 0
M  V30 11 C  20.6295 37.1168 86.5665 0
M  V30 12 C  20.2971 35.9871 87.3433 0
M  V30 13 C  21.2301 34.7852 87.4511 0
M  V30 14 C  19.0837 35.9578 88.0416 0
M  V30 15 C  18.1905 37.0218 87.9469 0
M  V30 16 C  18.5030 38.1297 87.1679 0
M  V30 17 C  19.7151 38.1924 86.4741 0
M  V30 18 C  20.0049 39.4396 85.6424 0
M  V30 19 C  21.8827 36.6561 84.5160 0
M  V30 20 C  23.2806 36.3499 84.0272 0
M  V30 21 C  24.3496 37.0304 84.6124 0
M  V30 22 C  23.5811 35.4917 82.9625 0
M  V30 23 N  24.8441 35.3119 82.5002 0
M  V30 24 C  25.8286 35.9821 83.1502 0
M  V30 25 N  25.6354 36.8138 84.2074 0
M  V30 26 N  27.1141 35.7611 82.6376 0
M  V30 27 C  28.4068 36.1851 82.9901 0
M  V30 28 C  29.4747 35.5809 82.3273 0
M  V30 29 C  30.7870 35.9360 82.6330 0
M  V30 30 C  31.0638 36.8846 83.6266 0
M  V30 31 C  29.9821 37.5007 84.2726 0
M  V30 32 C  28.6708 37.1576 83.9555 0
M  V30 33 N  32.3875 37.2177 83.9316 0
M  V30 34 C  33.4307 36.1818 84.0900 0
M  V30 35 C  33.7056 35.7589 85.5576 0
M  V30 36 N  34.0112 37.0045 86.4179 0 CHG=1
M  V30 37 C  34.2064 36.5970 87.8990 0
M  V30 38 C  32.8664 38.0259 86.2605 0
M  V30 39 C  32.7539 38.3814 84.7597 0
M  V30 40 H  25.8264 37.9387 87.8858 0
M  V30 41 H  26.7882 37.5567 86.4764 0
M  V30 42 H  26.8224 40.0989 88.1365 0
M  V30 43 H  28.1279 38.9646 87.9147 0
M  V30 44 H  28.4589 41.0653 86.5957 0
M  V30 45 H  28.3940 39.6653 85.5574 0
M  V30 46 H  26.1273 41.6491 86.0849 0
M  V30 47 H  27.0224 41.4871 84.6030 0
M  V30 48 H  26.0708 39.3232 84.1439 0
M  V30 49 H  24.7525 40.4006 84.5334 0
M  V30 50 H  24.6470 39.6373 86.7462 0
M  V30 51 H  21.4427 34.3839 86.4570 0
M  V30 52 H  22.1751 35.0811 87.9063 0
M  V30 53 H  20.7999 33.9788 88.0479 0
M  V30 54 H  18.8242 35.0989 88.6448 0
M  V30 55 H  17.2565 36.9931 88.4857 0
M  V30 56 H  17.7912 38.9458 87.1151 0
M  V30 57 H  20.8506 39.9917 86.0575 0
M  V30 58 H  20.2584 39.1738 84.6169 0
M  V30 59 H  19.1511 40.1177 85.6030 0
M  V30 60 H  21.2215 35.7977 84.4117 0
M  V30 61 H  21.4738 37.4342 83.8689 0
M  V30 62 H  22.8011 34.9518 82.4442 0
M  V30 63 H  27.1048 35.1820 81.8076 0
M  V30 64 H  29.2911 34.8332 81.5657 0
M  V30 65 H  31.5881 35.4660 82.0818 0
M  V30 66 H  30.1349 38.2479 85.0361 0
M  V30 67 H  27.8804 37.6613 84.4808 0
M  V30 68 H  33.1652 35.2792 83.5355 0
M  V30 69 H  34.3551 36.5369 83.6273 0
M  V30 70 H  34.6118 35.1569 85.6217 0
M  V30 71 H  32.8861 35.2048 86.0158 0
M  V30 72 H  33.2848 36.1424 88.2707 0
M  V30 73 H  35.0283 35.8796 87.9342 0
M  V30 74 H  34.4554 37.5036 88.4586 0
M  V30 75 H  33.1371 38.8942 86.8647 0
M  V30 76 H  31.9579 37.5739 86.6602 0
M  V30 77 H  33.7044 38.7811 84.4011 0
M  V30 78 H  32.0413 39.1940 84.6136 0
M  V30 79 H  34.8573 37.4273 86.0578 0
M  V30 END ATOM
M  V30 BEGIN BOND
M  V30 1 1 1 2
M  V30 2 1 1 6
M  V30 3 1 1 40
M  V30 4 1 1 41
M  V30 5 1 2 3
M  V30 6 1 2 42
M  V30 7 1 2 43
M  V30 8 1 3 4
M  V30 9 1 3 44
M  V30 10 1 3 45
M  V30 11 1 4 5
M  V30 12 1 4 46
M  V30 13 1 4 47
M  V30 14 1 5 6
M  V30 15 1 5 48
M  V30 16 1 5 49
M  V30 17 1 6 7
M  V30 18 1 6 50
M  V30 19 1 7 8
M  V30 20 1 7 21
M  V30 21 2 8 9
M  V30 22 1 8 10
M  V30 23 1 10 11
M  V30 24 1 10 19
M  V30 25 2 11 12
M  V30 26 1 11 17
M  V30 27 1 12 13
M  V30 28 1 12 14
M  V30 29 1 13 51
M  V30 30 1 13 52
M  V30 31 1 13 53
M  V30 32 2 14 15
M  V30 33 1 14 54
M  V30 34 1 15 16
M  V30 35 1 15 55
M  V30 36 2 16 17
M  V30 37 1 16 56
M  V30 38 1 17 18
M  V30 39 1 18 57
M  V30 40 1 18 58
M  V30 41 1 18 59
M  V30 42 1 19 20
M  V30 43 1 19 60
M  V30 44 1 19 61
M  V30 45 2 20 21
M  V30 46 1 20 22
M  V30 47 1 21 25
M  V30 48 2 22 23
M  V30 49 1 22 62
M  V30 50 1 23 24
M  V30 51 2 24 25
M  V30 52 1 24 26
M  V30 53 1 26 27
M  V30 54 1 26 63
M  V30 55 2 27 28
M  V30 56 1 27 32
M  V30 57 1 28 29
M  V30 58 1 28 64
M  V30 59 2 29 30
M  V30 60 1 29 65
M  V30 61 1 30 31
M  V30 62 1 30 33
M  V30 63 2 31 32
M  V30 64 1 31 66
M  V30 65 1 32 67
M  V30 66 1 33 34
M  V30 67 1 33 39
M  V30 68 1 34 35
M  V30 69 1 34 68
M  V30 70 1 34 69
M  V30 71 1 35 36
M  V30 72 1 35 70
M  V30 73 1 35 71
M  V30 74 1 36 37
M  V30 75 1 36 38
M  V30 76 1 36 79
M  V30 77 1 37 72
M  V30 78 1 37 73
M  V30 79 1 37 74
M  V30 80 1 38 39
M  V30 81 1 38 75
M  V30 82 1 38 76
M  V30 83 1 39 77
M  V30 84 1 39 78
M  V30 END BOND
M  V30 END CTAB
M  END
> <s_m_entry_id>
22

> <s_m_entry_name>
result.6490

> <s_m_Source_Path>
D:\OneDrive - zju.edu.cn\DOC\A-Finished\LCK_VS\Planet\LCK-8617

> <s_m_Source_File>
glide-dock_SP_top1262_2_pv.maegz

> <i_m_Source_File_Index>
22

> <PLANET_affinity>
9.799

> <i_lp_mmshare_version>
54117

> <i_f3d_flags>
0

> <s_epik_input>
W0NIM11jMVtjSF1bY0hdW2NIXWMoW0NIM10pYzFOKFtDSDJdMilDKD1PKU4oW0NIXTNbQ0gyXVtDSDJdW0NIMl1bQ0gyXVtDSDJdMyljKGMyNCluYyhuW2NIXTQpW05IXWM1W2NIXVtjSF1jKFtjSF1bY0hdNSlONltDSDJdW0NIMl1OKFtDSDNdKVtDSDJdW0NIMl02

> <s_epik_cmdline>
J2VwaWtfcHl0aG9uJywgJy1waCcsICc3LjAnLCAnLXRuJywgJzgnLCAnLW1hJywgJzUwMCcsICctaW1hZScsICc8aW5maWxlLm1hZT4nLCAnLW9tYWUnLCAnPG91dGZpbGUubWFlPic=

> <r_epik_Ionization_Penalty>
  0.0834

> <r_epik_Ionization_Penalty_Charging>
  0.0647

> <r_epik_Ionization_Penalty_Neutral>
  0.0186

> <r_epik_State_Penalty>
  0.4048

> <r_epik_Charging_Adjusted_Penalty>
0.469597

> <i_epik_Tot_Q>
1

> <i_epik_Tot_abs_Q>
1

> <s_lp_Force_Field>
S-OPLS

> <r_lp_Energy>
99.0386

> <b_lp_Chiralities_Consistent>
1

> <s_lp_Variant>
O=C1N(C2CCCCC2)C3=NC(NC4=CC=C(N5CCN(C)CC5)C=C4)=NC=C3CN1C6=C(C)C=CC=C6C-1

> <s_i_glide_gridfile>
glide-grid_1

> <i_i_glide_lignum>
288

> <i_i_glide_rotatable_bonds>
5

> <r_i_docking_score>
-9.92868514393436

> <r_i_glide_ligand_efficiency>
-0.254581670357291

> <r_i_glide_ligand_efficiency_sa>
-0.863340272643007

> <r_i_glide_ligand_efficiency_ln>
-2.12899193734778

> <r_i_glide_gscore>
-10.3334851439344

> <r_i_glide_lipo>
-4.01016398492087

> <r_i_glide_hbond>
-0.434725285415492

> <r_i_glide_metal>
0

> <r_i_glide_rewards>
-1.99768003472379

> <r_i_glide_evdw>
-53.8960723876953

> <r_i_glide_ecoul>
-9.58489227294922

> <r_i_glide_erotb>
0.259787226186586

> <r_i_glide_esite>
-0.0181656047336413

> <r_i_glide_emodel>
-105.085815600911

> <r_i_glide_energy>
-63.4809646606445

> <r_i_glide_einternal>
1.28842151165009

> <i_i_glide_confnum>
80

> <i_i_glide_posenum>
27

> <r_i_glide_eff_state_penalty>
0.4048

> <r_lp_tautomer_probability>
1

> <s_m_subgroup_title>
glide-dock_SP_top1262_2_pv

> <s_m_subgroupid>
glide-dock_SP_top1262_2_pv

> <b_m_subgroup_collapsed>
0

$$$$
O=C1C=C(C2=CC=C(O[C@H]3[C@@H]([C@H]([C@@H]([C@@H](CO)O3)O)O)O)C=C2)OC4=CC(O)=...
                    3D
 Schrodinger Suite 2021-3.
  0  0  0     0  0            999 V3000
M  V30 BEGIN CTAB
M  V30 COUNTS 89 94 0 0 0
M  V30 BEGIN ATOM
M  V30 1 O  22.2836 40.7186 87.5639 0
M  V30 2 C  22.7486 41.6281 88.5653 0
M  V30 3 C  22.2837 43.0566 88.2634 0 CFG=2
M  V30 4 O  20.8805 43.1563 88.4437 0
M  V30 5 C  22.8073 43.4576 86.8803 0 CFG=2
M  V30 6 O  22.4831 44.8013 86.5686 0
M  V30 7 C  22.3596 42.4397 85.8072 0 CFG=1
M  V30 8 O  22.9062 42.7496 84.5353 0
M  V30 9 C  22.6917 40.9945 86.2375 0 CFG=2
M  V30 10 O  22.0666 40.1501 85.3043 0
M  V30 11 C  21.5855 38.8413 85.6512 0 CFG=2
M  V30 12 C  20.1648 38.8967 86.2741 0 CFG=1
M  V30 13 O  19.2411 39.5564 85.4241 0
M  V30 14 C  19.6285 37.4846 86.6179 0 CFG=2
M  V30 15 O  18.4335 37.5866 87.3819 0
M  V30 16 C  20.6930 36.6252 87.3510 0 CFG=2
M  V30 17 O  21.9156 36.6508 86.6160 0
M  V30 18 C  20.2583 35.1522 87.4454 0
M  V30 19 O  21.2549 34.3570 88.0436 0
M  V30 20 C  22.5235 37.9299 86.5002 0 CFG=1
M  V30 21 C  23.9492 37.7943 85.9444 0
M  V30 22 C  25.0199 38.4291 86.5942 0
M  V30 23 C  26.3031 38.3382 86.0947 0
M  V30 24 O  24.8563 39.1594 87.7376 0
M  V30 25 C  24.2142 37.0062 84.8064 0
M  V30 26 O  23.1852 36.3563 84.1687 0
M  V30 27 C  25.5275 36.8751 84.3162 0
M  V30 28 C  26.5473 37.5820 84.9661 0
M  V30 29 C  25.8957 36.0018 83.1543 0
M  V30 30 O  25.0722 35.3302 82.5304 0
M  V30 31 C  27.3119 36.0064 82.8451 0
M  V30 32 C  28.2083 36.7560 83.5246 0
M  V30 33 O  27.8570 37.5661 84.5511 0
M  V30 34 C  29.6648 36.8416 83.2445 0
M  V30 35 C  30.5513 37.4088 84.1720 0
M  V30 36 C  31.9175 37.4785 83.9053 0
M  V30 37 C  32.4302 36.9997 82.7013 0
M  V30 38 C  31.5443 36.4373 81.7796 0
M  V30 39 C  30.1868 36.3475 82.0450 0
M  V30 40 O  33.7957 37.1246 82.5029 0
M  V30 41 C  34.4014 36.8231 81.2665 0 CFG=1
M  V30 42 C  34.5246 35.2892 81.0550 0 CFG=2
M  V30 43 O  35.3911 34.7126 82.0149 0
M  V30 44 C  35.0075 34.9511 79.6181 0 CFG=1
M  V30 45 O  34.8693 33.5590 79.3522 0
M  V30 46 C  34.3422 35.8362 78.5373 0 CFG=2
M  V30 47 O  34.8840 35.6042 77.2448 0
M  V30 48 C  34.4514 37.3284 78.9506 0 CFG=2
M  V30 49 O  33.7481 37.4600 80.1896 0
M  V30 50 C  33.9036 38.3240 77.8965 0
M  V30 51 O  33.6835 39.6094 78.4438 0
M  V30 52 H  23.8335 41.5652 88.6645 0
M  V30 53 H  22.3478 41.3021 89.5247 0
M  V30 54 H  22.7194 43.7295 89.0037 0
M  V30 55 H  20.5391 43.9460 87.9948 0
M  V30 56 H  23.8987 43.4490 86.9258 0
M  V30 57 H  21.5362 44.8719 86.3598 0
M  V30 58 H  21.2829 42.4905 85.7025 0
M  V30 59 H  22.8046 43.6995 84.3873 0
M  V30 60 H  23.7656 40.8200 86.2033 0
M  V30 61 H  21.4835 38.3696 84.6727 0
M  V30 62 H  20.2227 39.4929 87.1846 0
M  V30 63 H  18.3710 39.4658 85.8294 0
M  V30 64 H  19.3674 36.9849 85.6814 0
M  V30 65 H  17.8935 36.8041 87.2465 0
M  V30 66 H  20.8663 37.0074 88.3583 0
M  V30 67 H  19.3354 35.0447 88.0179 0
M  V30 68 H  20.0836 34.7599 86.4471 0
M  V30 69 H  21.1784 33.4518 87.7079 0
M  V30 70 H  22.5962 38.3130 87.5168 0
M  V30 71 H  27.1163 38.8513 86.5862 0
M  V30 72 H  23.9270 39.2984 87.9330 0
M  V30 73 H  23.5192 35.8219 83.4382 0
M  V30 74 H  27.6422 35.3667 82.0453 0
M  V30 75 H  30.1920 37.7931 85.1162 0
M  V30 76 H  32.5860 37.9135 84.6348 0
M  V30 77 H  31.8903 36.0562 80.8411 0
M  V30 78 H  29.5548 35.9037 81.2896 0
M  V30 79 H  35.3829 37.2993 81.3194 0
M  V30 80 H  33.5535 34.8232 81.2178 0
M  V30 81 H  35.6130 33.8245 81.7197 0
M  V30 82 H  36.0808 35.1451 79.5763 0
M  V30 83 H  33.9354 33.3272 79.3059 0
M  V30 84 H  33.2871 35.5570 78.4785 0
M  V30 85 H  34.2509 35.9121 76.5782 0
M  V30 86 H  35.5009 37.5954 79.0988 0
M  V30 87 H  34.6057 38.4097 77.0651 0
M  V30 88 H  32.9678 37.9918 77.4611 0
M  V30 89 H  32.8028 39.5993 78.8428 0
M  V30 END ATOM
M  V30 BEGIN BOND
M  V30 1 1 1 2
M  V30 2 1 1 9
M  V30 3 1 2 3
M  V30 4 1 2 52
M  V30 5 1 2 53
M  V30 6 1 3 4
M  V30 7 1 3 5
M  V30 8 1 3 54
M  V30 9 1 4 55
M  V30 10 1 5 6
M  V30 11 1 5 7
M  V30 12 1 5 56
M  V30 13 1 6 57
M  V30 14 1 7 8
M  V30 15 1 7 9
M  V30 16 1 7 58
M  V30 17 1 8 59
M  V30 18 1 9 10
M  V30 19 1 9 60
M  V30 20 1 10 11
M  V30 21 1 11 12
M  V30 22 1 11 20
M  V30 23 1 11 61
M  V30 24 1 12 13
M  V30 25 1 12 14
M  V30 26 1 12 62
M  V30 27 1 13 63
M  V30 28 1 14 15
M  V30 29 1 14 16
M  V30 30 1 14 64
M  V30 31 1 15 65
M  V30 32 1 16 17
M  V30 33 1 16 18
M  V30 34 1 16 66
M  V30 35 1 17 20
M  V30 36 1 18 19
M  V30 37 1 18 67
M  V30 38 1 18 68
M  V30 39 1 19 69
M  V30 40 1 20 21
M  V30 41 1 20 70
M  V30 42 2 21 22
M  V30 43 1 21 25
M  V30 44 1 22 23
M  V30 45 1 22 24
M  V30 46 2 23 28
M  V30 47 1 23 71
M  V30 48 1 24 72
M  V30 49 1 25 26
M  V30 50 2 25 27
M  V30 51 1 26 73
M  V30 52 1 27 28
M  V30 53 1 27 29
M  V30 54 1 28 33
M  V30 55 2 29 30
M  V30 56 1 29 31
M  V30 57 2 31 32
M  V30 58 1 31 74
M  V30 59 1 32 33
M  V30 60 1 32 34
M  V30 61 2 34 35
M  V30 62 1 34 39
M  V30 63 1 35 36
M  V30 64 1 35 75
M  V30 65 2 36 37
M  V30 66 1 36 76
M  V30 67 1 37 38
M  V30 68 1 37 40
M  V30 69 2 38 39
M  V30 70 1 38 77
M  V30 71 1 39 78
M  V30 72 1 40 41
M  V30 73 1 41 42
M  V30 74 1 41 49
M  V30 75 1 41 79
M  V30 76 1 42 43
M  V30 77 1 42 44
M  V30 78 1 42 80
M  V30 79 1 43 81
M  V30 80 1 44 45
M  V30 81 1 44 46
M  V30 82 1 44 82
M  V30 83 1 45 83
M  V30 84 1 46 47
M  V30 85 1 46 48
M  V30 86 1 46 84
M  V30 87 1 47 85
M  V30 88 1 48 49
M  V30 89 1 48 50
M  V30 90 1 48 86
M  V30 91 1 50 51
M  V30 92 1 50 87
M  V30 93 1 50 88
M  V30 94 1 51 89
M  V30 END BOND
M  V30 END CTAB
M  END
> <s_m_entry_id>
25

> <s_m_entry_name>
result.3437

> <s_m_Source_Path>
D:\OneDrive - zju.edu.cn\DOC\A-Finished\LCK_VS\Planet\LCK-8617

> <s_m_Source_File>
glide-dock_SP_top1262_2_pv.maegz

> <i_m_Source_File_Index>
25

> <PLANET_affinity>
7.556

> <i_lp_mmshare_version>
54117

> <i_f3d_flags>
0

> <s_epik_input>
W09IXVtDQEhdMVtDSDJdT1tDQEhdKFtDQEhdKFtPSF0pW0NASF0xW09IXSlPW0NAQEhdMltDQEBIXShbT0hdKVtDQEhdKFtPSF0pW0NAQEhdKFtDSDJdW09IXSlPW0NASF0yYyhjM1tPSF0pYyhbT0hdKVtjSF1jKGMzNClvYyhbY0hdYzQ9TyktYzVbY0hdW2NIXWMoW2NIXVtjSF01KU9bQ0BIXTZbQ0BIXShbT0hdKVtDQEBIXShbT0hdKVtDQEhdKFtPSF0pW0NASF0oTzYpW0NIMl1bT0hd

> <s_epik_cmdline>
J2VwaWtfcHl0aG9uJywgJy1waCcsICc3LjAnLCAnLXRuJywgJzgnLCAnLW1hJywgJzUwMCcsICctaW1hZScsICc8aW5maWxlLm1hZT4nLCAnLW9tYWUnLCAnPG91dGZpbGUubWFlPic=

> <r_epik_Ionization_Penalty>
  0.0440

> <r_epik_Ionization_Penalty_Charging>
  0.0000

> <r_epik_Ionization_Penalty_Neutral>
  0.0440

> <r_epik_State_Penalty>
  0.0357

> <r_epik_Charging_Adjusted_Penalty>
0.0357415

> <i_epik_Tot_Q>
0

> <i_epik_Tot_abs_Q>
0

> <s_epik_Chemistry_Notes>
This compound contains an acetal/aminal-like group ( X-CH(R)-Y where X, Y are N, S, or O) that may be acid/base labile, releasing an aldehyde.

> <s_lp_Force_Field>
S-OPLS

> <r_lp_Energy>
32.5455

> <b_lp_Chiralities_Consistent>
1

> <s_lp_Variant>
O=C1C=C(C2=CC=C(O[C@H]3[C@@H]([C@H]([C@@H]([C@@H](CO)O3)O)O)O)C=C2)OC4=CC(O)=...-1

> <s_i_glide_gridfile>
glide-grid_1

> <i_i_glide_lignum>
1856

> <i_i_glide_rotatable_bonds>
20

> <r_i_docking_score>
-9.85025355430591

> <r_i_glide_ligand_efficiency>
-0.193142226555018

> <r_i_glide_ligand_efficiency_sa>
-0.716254381720254

> <r_i_glide_ligand_efficiency_ln>
-1.99728341751301

> <r_i_glide_gscore>
-9.88595355430591

> <r_i_glide_lipo>
-3.31989164211778

> <r_i_glide_hbond>
-0.167125151947725

> <r_i_glide_metal>
0

> <r_i_glide_rewards>
-0.00228056730660015

> <r_i_glide_evdw>
-52.1379203796387

> <r_i_glide_ecoul>
-26.1722850799561

> <r_i_glide_erotb>
0.141428089206085

> <r_i_glide_esite>
-0.00534550116454829

> <r_i_glide_emodel>
-112.944384883707

> <r_i_glide_energy>
-78.3102054595947

> <r_i_glide_einternal>
24.0658912658691

> <i_i_glide_confnum>
208

> <i_i_glide_posenum>
273

> <r_i_glide_eff_state_penalty>
0.0357

> <r_lp_tautomer_probability>
1

> <s_m_subgroup_title>
glide-dock_SP_top1262_2_pv

> <s_m_subgroupid>
glide-dock_SP_top1262_2_pv

> <b_m_subgroup_collapsed>
0

$$$$
O=C1N(C)C2=NC(NC3=CC=C(OCCN(CC)CC)C=C3)=NC=C2C=C1C4=C(Cl)C=CC=C4Cl
                    3D
 Schrodinger Suite 2021-3.
  0  0  0     0  0            999 V3000
M  V30 BEGIN CTAB
M  V30 COUNTS 63 66 0 0 0
M  V30 BEGIN ATOM
M  V30 1 Cl 20.1693 39.5546 84.8435 0
M  V30 2 C  19.6889 38.3477 85.9894 0
M  V30 3 C  18.4428 38.4848 86.6048 0
M  V30 4 C  18.0028 37.5400 87.5254 0
M  V30 5 C  18.8058 36.4399 87.8267 0
M  V30 6 C  20.0563 36.2945 87.2272 0
M  V30 7 Cl 21.0024 34.9027 87.6388 0
M  V30 8 C  20.5194 37.2560 86.3064 0
M  V30 9 C  21.8776 37.1278 85.7175 0
M  V30 10 C  22.9899 37.8216 86.3838 0
M  V30 11 O  22.8062 38.5421 87.3712 0
M  V30 12 N  24.2307 37.6003 85.8287 0
M  V30 13 C  25.4016 38.2437 86.4640 0
M  V30 14 C  22.0600 36.3586 84.6158 0
M  V30 15 C  23.3915 36.1599 84.0464 0
M  V30 16 C  24.4718 36.7944 84.6740 0
M  V30 17 C  23.6660 35.3683 82.9334 0
M  V30 18 N  24.9241 35.2376 82.4423 0
M  V30 19 C  25.9111 35.9212 83.0721 0
M  V30 20 N  25.7406 36.6742 84.1902 0
M  V30 21 N  27.1762 35.8030 82.4834 0
M  V30 22 C  28.4440 36.2849 82.8461 0
M  V30 23 C  29.5543 35.5782 82.3841 0
M  V30 24 C  30.8417 35.9878 82.7149 0
M  V30 25 C  31.0341 37.1237 83.5155 0
M  V30 26 C  29.9247 37.8417 83.9586 0
M  V30 27 C  28.6374 37.4290 83.6296 0
M  V30 28 O  32.2707 37.6158 83.8897 0
M  V30 29 C  33.4600 36.8640 83.6441 0
M  V30 30 C  33.5862 35.6907 84.6448 0
M  V30 31 N  34.7980 34.7621 84.3391 0 CHG=1
M  V30 32 C  34.6082 33.8536 83.0964 0
M  V30 33 C  33.4725 32.8381 83.3101 0
M  V30 34 C  36.1726 35.4827 84.3037 0
M  V30 35 C  36.4602 36.2229 85.6219 0
M  V30 36 H  17.8103 39.3340 86.3819 0
M  V30 37 H  17.0379 37.6561 87.9997 0
M  V30 38 H  18.4587 35.7030 88.5365 0
M  V30 39 H  25.1662 38.8208 87.3607 0
M  V30 40 H  26.1386 37.4935 86.7536 0
M  V30 41 H  25.8809 38.9237 85.7591 0
M  V30 42 H  21.2125 35.8831 84.1520 0
M  V30 43 H  22.8829 34.8262 82.4188 0
M  V30 44 H  27.1728 35.2954 81.6046 0
M  V30 45 H  29.4257 34.7040 81.7621 0
M  V30 46 H  31.6695 35.4127 82.3307 0
M  V30 47 H  30.0635 38.7287 84.5606 0
M  V30 48 H  27.8062 38.0219 83.9755 0
M  V30 49 H  34.2938 37.5535 83.7804 0
M  V30 50 H  33.5128 36.5452 82.6014 0
M  V30 51 H  32.7053 35.0513 84.6690 0
M  V30 52 H  33.7376 36.0411 85.6670 0
M  V30 53 H  35.5519 33.3213 82.9718 0
M  V30 54 H  34.4570 34.5027 82.2332 0
M  V30 55 H  33.4270 32.1417 82.4699 0
M  V30 56 H  32.4921 33.3086 83.3823 0
M  V30 57 H  33.6327 32.2451 84.2128 0
M  V30 58 H  36.9099 34.6920 84.1548 0
M  V30 59 H  36.1734 36.1380 83.4316 0
M  V30 60 H  37.4766 36.6210 85.6221 0
M  V30 61 H  35.7901 37.0696 85.7789 0
M  V30 62 H  36.3723 35.5584 86.4844 0
M  V30 63 H  34.8768 34.1245 85.1339 0
M  V30 END ATOM
M  V30 BEGIN BOND
M  V30 1 1 1 2
M  V30 2 2 2 3
M  V30 3 1 2 8
M  V30 4 1 3 4
M  V30 5 1 3 36
M  V30 6 2 4 5
M  V30 7 1 4 37
M  V30 8 1 5 6
M  V30 9 1 5 38
M  V30 10 1 6 7
M  V30 11 2 6 8
M  V30 12 1 8 9
M  V30 13 1 9 10
M  V30 14 2 9 14
M  V30 15 2 10 11
M  V30 16 1 10 12
M  V30 17 1 12 13
M  V30 18 1 12 16
M  V30 19 1 13 39
M  V30 20 1 13 40
M  V30 21 1 13 41
M  V30 22 1 14 15
M  V30 23 1 14 42
M  V30 24 2 15 16
M  V30 25 1 15 17
M  V30 26 1 16 20
M  V30 27 2 17 18
M  V30 28 1 17 43
M  V30 29 1 18 19
M  V30 30 2 19 20
M  V30 31 1 19 21
M  V30 32 1 21 22
M  V30 33 1 21 44
M  V30 34 2 22 23
M  V30 35 1 22 27
M  V30 36 1 23 24
M  V30 37 1 23 45
M  V30 38 2 24 25
M  V30 39 1 24 46
M  V30 40 1 25 26
M  V30 41 1 25 28
M  V30 42 2 26 27
M  V30 43 1 26 47
M  V30 44 1 27 48
M  V30 45 1 28 29
M  V30 46 1 29 30
M  V30 47 1 29 49
M  V30 48 1 29 50
M  V30 49 1 30 31
M  V30 50 1 30 51
M  V30 51 1 30 52
M  V30 52 1 31 32
M  V30 53 1 31 34
M  V30 54 1 31 63
M  V30 55 1 32 33
M  V30 56 1 32 53
M  V30 57 1 32 54
M  V30 58 1 33 55
M  V30 59 1 33 56
M  V30 60 1 33 57
M  V30 61 1 34 35
M  V30 62 1 34 58
M  V30 63 1 34 59
M  V30 64 1 35 60
M  V30 65 1 35 61
M  V30 66 1 35 62
M  V30 END BOND
M  V30 END CTAB
M  END
> <s_m_entry_id>
28

> <s_m_entry_name>
result.1025

> <s_m_Source_Path>
D:\OneDrive - zju.edu.cn\DOC\A-Finished\LCK_VS\Planet\LCK-8617

> <s_m_Source_File>
glide-dock_SP_top1262_2_pv.maegz

> <i_m_Source_File_Index>
28

> <PLANET_affinity>
9.12

> <i_lp_mmshare_version>
54117

> <i_f3d_flags>
0

> <s_epik_input>
Q2xjMVtjSF1bY0hdW2NIXWMoQ2wpYzEtYyhbY0hdMiljKD1PKW4oW0NIM10pYyhjMjMpbmMobltjSF0zKVtOSF1jNFtjSF1bY0hdYyhbY0hdW2NIXTQpT1tDSDJdW0NIMl1OKFtDSDJdW0NIM10pW0NIMl1bQ0gzXQ==

> <s_epik_cmdline>
J2VwaWtfcHl0aG9uJywgJy1waCcsICc3LjAnLCAnLXRuJywgJzgnLCAnLW1hJywgJzUwMCcsICctaW1hZScsICc8aW5maWxlLm1hZT4nLCAnLW9tYWUnLCAnPG91dGZpbGUubWFlPic=

> <r_epik_Ionization_Penalty>
  0.0248

> <r_epik_Ionization_Penalty_Charging>
  0.0248

> <r_epik_Ionization_Penalty_Neutral>
  0.0000

> <r_epik_State_Penalty>
  0.0202

> <r_epik_Charging_Adjusted_Penalty>
0.0449634

> <i_epik_Tot_Q>
1

> <i_epik_Tot_abs_Q>
1

> <s_epik_Chemistry_Notes>
This compound has an imine and may undergo hydrolysis.

> <s_lp_Force_Field>
S-OPLS

> <r_lp_Energy>
66.265

> <b_lp_Chiralities_Consistent>
1

> <s_lp_Variant>
O=C1N(C)C2=NC(NC3=CC=C(OCCN(CC)CC)C=C3)=NC=C2C=C1C4=C(Cl)C=CC=C4Cl-1

> <s_i_glide_gridfile>
glide-grid_1

> <i_i_glide_lignum>
471

> <i_i_glide_rotatable_bonds>
9

> <r_i_docking_score>
-9.7989192910385

> <r_i_glide_ligand_efficiency>
-0.2799691226011

> <r_i_glide_ligand_efficiency_sa>
-0.915797563748191

> <r_i_glide_ligand_efficiency_ln>
-2.15108025967936

> <r_i_glide_gscore>
-9.8191192910385

> <r_i_glide_lipo>
-3.53429715513417

> <r_i_glide_hbond>
-0.748527689722026

> <r_i_glide_metal>
0

> <r_i_glide_rewards>
-1.90808171593791

> <r_i_glide_evdw>
-51.2954368591309

> <r_i_glide_ecoul>
-9.03911972045898

> <r_i_glide_erotb>
0.381156332276696

> <r_i_glide_esite>
-0.0887292614956978

> <r_i_glide_emodel>
-100.81218112859

> <r_i_glide_energy>
-60.3345565795898

> <r_i_glide_einternal>
5.72702169418335

> <i_i_glide_confnum>
114

> <i_i_glide_posenum>
310

> <r_i_glide_eff_state_penalty>
0.0202

> <s_m_subgroup_title>
glide-dock_SP_top1262_2_pv

> <s_m_subgroupid>
glide-dock_SP_top1262_2_pv

> <b_m_subgroup_collapsed>
0

$$$$
O=C1N(N(C2=NC(NC3=CC=C(C=C3)N4CCN(CC4)C)=NC=C21)C5=NC(C(O)(C)C)=CC=C5)CC=C
                    3D
 Schrodinger Suite 2021-3.
  0  0  0     0  0            999 V3000
M  V30 BEGIN CTAB
M  V30 COUNTS 70 74 0 0 0
M  V30 BEGIN ATOM
M  V30 1 C  25.4259 38.2202 86.8380 0
M  V30 2 C  26.0370 39.3321 87.4180 0
M  V30 3 C  25.3548 40.5512 87.4590 0
M  V30 4 C  24.0630 40.6299 86.9148 0
M  V30 5 C  23.2226 41.9286 86.8923 0
M  V30 6 O  21.9126 41.7117 87.3953 0
M  V30 7 C  23.7958 43.0633 87.7719 0
M  V30 8 C  23.0280 42.4289 85.4438 0
M  V30 9 N  23.4706 39.5399 86.3528 0
M  V30 10 C  24.1353 38.3524 86.3129 0
M  V30 11 N  23.5040 37.2580 85.6921 0
M  V30 12 N  22.0825 37.1805 85.5691 0
M  V30 13 C  21.1609 37.4639 86.6878 0
M  V30 14 C  20.6501 36.2637 87.4781 0
M  V30 15 C  21.1482 35.0163 87.4521 0
M  V30 16 C  21.6740 36.5563 84.4403 0
M  V30 17 O  20.5255 36.3575 84.0421 0
M  V30 18 C  22.9570 36.1538 83.8171 0
M  V30 19 C  24.0100 36.5881 84.5829 0
M  V30 20 C  23.2546 35.5173 82.6179 0
M  V30 21 N  24.5430 35.4024 82.1902 0
M  V30 22 C  25.5192 35.9248 82.9846 0
M  V30 23 N  25.3102 36.4933 84.2075 0
M  V30 24 N  26.8128 35.8735 82.4446 0
M  V30 25 C  28.0452 36.3441 82.9243 0
M  V30 26 C  29.1989 35.6787 82.5112 0
M  V30 27 C  30.4463 36.0801 82.9798 0
M  V30 28 C  30.5615 37.1639 83.8591 0
M  V30 29 C  29.4039 37.8527 84.2381 0
M  V30 30 C  28.1558 37.4496 83.7743 0
M  V30 31 N  31.8004 37.5471 84.3613 0
M  V30 32 C  33.0565 37.5149 83.5949 0
M  V30 33 C  34.1712 36.7084 84.2964 0
M  V30 34 N  34.4351 37.3429 85.6786 0 CHG=1
M  V30 35 C  35.5633 36.5905 86.4170 0
M  V30 36 C  33.1275 37.2827 86.4956 0
M  V30 37 C  32.0186 38.0434 85.7327 0
M  V30 38 H  25.9257 37.2566 86.8067 0
M  V30 39 H  27.0305 39.2521 87.8355 0
M  V30 40 H  25.8359 41.4077 87.9085 0
M  V30 41 H  21.4003 42.5117 87.2436 0
M  V30 42 H  24.7790 43.3839 87.4236 0
M  V30 43 H  23.8894 42.7598 88.8155 0
M  V30 44 H  23.1581 43.9492 87.7507 0
M  V30 45 H  23.9854 42.6159 84.9577 0
M  V30 46 H  22.4876 41.7042 84.8328 0
M  V30 47 H  22.4621 43.3629 85.4075 0
M  V30 48 H  21.5873 38.1657 87.4032 0
M  V30 49 H  20.2883 37.9864 86.2919 0
M  V30 50 H  19.8024 36.4589 88.1216 0
M  V30 51 H  20.7082 34.2292 88.0474 0
M  V30 52 H  21.9987 34.7545 86.8406 0
M  V30 53 H  22.4805 35.1579 81.9543 0
M  V30 54 H  26.8708 35.4665 81.5189 0
M  V30 55 H  29.1355 34.8323 81.8412 0
M  V30 56 H  31.3170 35.5217 82.6700 0
M  V30 57 H  29.4652 38.7081 84.8950 0
M  V30 58 H  27.2861 38.0102 84.0794 0
M  V30 59 H  32.8843 37.0948 82.6034 0
M  V30 60 H  33.3763 38.5407 83.4025 0
M  V30 61 H  35.1099 36.7532 83.7407 0
M  V30 62 H  33.8987 35.6615 84.4530 0
M  V30 63 H  35.2512 35.5565 86.5569 0
M  V30 64 H  36.4611 36.6507 85.8009 0
M  V30 65 H  35.7194 37.0855 87.3755 0
M  V30 66 H  33.3339 37.7401 87.4653 0
M  V30 67 H  32.8830 36.2287 86.6428 0
M  V30 68 H  32.2296 39.1135 85.6964 0
M  V30 69 H  31.0974 37.9594 86.3097 0
M  V30 70 H  34.6906 38.3127 85.5452 0
M  V30 END ATOM
M  V30 BEGIN BOND
M  V30 1 2 1 2
M  V30 2 1 1 10
M  V30 3 1 1 38
M  V30 4 1 2 3
M  V30 5 1 2 39
M  V30 6 2 3 4
M  V30 7 1 3 40
M  V30 8 1 4 5
M  V30 9 1 4 9
M  V30 10 1 5 6
M  V30 11 1 5 7
M  V30 12 1 5 8
M  V30 13 1 6 41
M  V30 14 1 7 42
M  V30 15 1 7 43
M  V30 16 1 7 44
M  V30 17 1 8 45
M  V30 18 1 8 46
M  V30 19 1 8 47
M  V30 20 2 9 10
M  V30 21 1 10 11
M  V30 22 1 11 12
M  V30 23 1 11 19
M  V30 24 1 12 13
M  V30 25 1 12 16
M  V30 26 1 13 14
M  V30 27 1 13 48
M  V30 28 1 13 49
M  V30 29 2 14 15
M  V30 30 1 14 50
M  V30 31 1 15 51
M  V30 32 1 15 52
M  V30 33 2 16 17
M  V30 34 1 16 18
M  V30 35 2 18 19
M  V30 36 1 18 20
M  V30 37 1 19 23
M  V30 38 2 20 21
M  V30 39 1 20 53
M  V30 40 1 21 22
M  V30 41 2 22 23
M  V30 42 1 22 24
M  V30 43 1 24 25
M  V30 44 1 24 54
M  V30 45 2 25 26
M  V30 46 1 25 30
M  V30 47 1 26 27
M  V30 48 1 26 55
M  V30 49 2 27 28
M  V30 50 1 27 56
M  V30 51 1 28 29
M  V30 52 1 28 31
M  V30 53 2 29 30
M  V30 54 1 29 57
M  V30 55 1 30 58
M  V30 56 1 31 32
M  V30 57 1 31 37
M  V30 58 1 32 33
M  V30 59 1 32 59
M  V30 60 1 32 60
M  V30 61 1 33 34
M  V30 62 1 33 61
M  V30 63 1 33 62
M  V30 64 1 34 35
M  V30 65 1 34 36
M  V30 66 1 34 70
M  V30 67 1 35 63
M  V30 68 1 35 64
M  V30 69 1 35 65
M  V30 70 1 36 37
M  V30 71 1 36 66
M  V30 72 1 36 67
M  V30 73 1 37 68
M  V30 74 1 37 69
M  V30 END BOND
M  V30 END CTAB
M  END
> <s_m_entry_id>
29

> <s_m_entry_name>
result.6500

> <s_m_Source_Path>
D:\OneDrive - zju.edu.cn\DOC\A-Finished\LCK_VS\Planet\LCK-8617

> <s_m_Source_File>
glide-dock_SP_top1262_2_pv.maegz

> <i_m_Source_File_Index>
29

> <PLANET_affinity>
8.61

> <i_lp_mmshare_version>
54117

> <i_f3d_flags>
0

> <s_epik_input>
W09IXUMoW0NIM10pKFtDSDNdKWMxW2NIXVtjSF1bY0hdYyhuMSktbihuKGMyPU8pW0NIMl1bQ0hdPVtDSDJdKWMoYzIzKW5jKG5bY0hdMylbTkhdYzRbY0hdW2NIXWMoW2NIXVtjSF00KU41W0NIMl1bQ0gyXU4oW0NIM10pW0NIMl1bQ0gyXTU=

> <s_epik_cmdline>
J2VwaWtfcHl0aG9uJywgJy1waCcsICc3LjAnLCAnLXRuJywgJzgnLCAnLW1hJywgJzUwMCcsICctaW1hZScsICc8aW5maWxlLm1hZT4nLCAnLW9tYWUnLCAnPG91dGZpbGUubWFlPic=

> <r_epik_Ionization_Penalty>
  0.0667

> <r_epik_Ionization_Penalty_Charging>
  0.0648

> <r_epik_Ionization_Penalty_Neutral>
  0.0019

> <r_epik_State_Penalty>
  0.0564

> <r_epik_Charging_Adjusted_Penalty>
0.121189

> <i_epik_Tot_Q>
1

> <i_epik_Tot_abs_Q>
1

> <s_epik_Chemistry_Notes>
This compound has an imine and may undergo hydrolysis.

> <s_lp_Force_Field>
S-OPLS

> <r_lp_Energy>
68.166

> <b_lp_Chiralities_Consistent>
1

> <s_lp_Variant>
O=C1N(N(C2=NC(NC3=CC=C(C=C3)N4CCN(CC4)C)=NC=C21)C5=NC(C(O)(C)C)=CC=C5)CC=C-1

> <s_i_glide_gridfile>
glide-grid_1

> <i_i_glide_lignum>
736

> <i_i_glide_rotatable_bonds>
8

> <r_i_docking_score>
-9.79876964929419

> <r_i_glide_ligand_efficiency>
-0.264831612143086

> <r_i_glide_ligand_efficiency_sa>
-0.882477683927633

> <r_i_glide_ligand_efficiency_ln>
-2.12512342117904

> <r_i_glide_gscore>
-9.85516964929419

> <r_i_glide_lipo>
-2.76342472605498

> <r_i_glide_hbond>
-0.761350293192457

> <r_i_glide_metal>
0

> <r_i_glide_rewards>
-2.32357512878643

> <r_i_glide_evdw>
-45.9299507141113

> <r_i_glide_ecoul>
-13.9945287704468

> <r_i_glide_erotb>
0.397824511145493

> <r_i_glide_esite>
-0.00896716113322691

> <r_i_glide_emodel>
-96.2210829672436

> <r_i_glide_energy>
-59.9244794845581

> <r_i_glide_einternal>
4.93006038665771

> <i_i_glide_confnum>
134

> <i_i_glide_posenum>
214

> <r_i_glide_eff_state_penalty>
0.0564

> <s_m_subgroup_title>
glide-dock_SP_top1262_2_pv

> <s_m_subgroupid>
glide-dock_SP_top1262_2_pv

> <b_m_subgroup_collapsed>
0

$$$$
O=C(OC1=C(C)C=CC=C1C)N(C2=CC=C(OC)C=C2OC)C3=NC(NC4=CC=C(N5CCN(C)CC5)C=C4)=NC=C3
                    3D
 Schrodinger Suite 2021-3.
  0  0  0     0  0            999 V3000
M  V30 BEGIN CTAB
M  V30 COUNTS 79 83 0 0 0
M  V30 BEGIN ATOM
M  V30 1 C  21.0109 34.7478 87.7011 0
M  V30 2 C  20.1564 35.9901 87.5085 0
M  V30 3 C  18.8651 36.0150 88.0428 0
M  V30 4 C  18.0389 37.1145 87.8391 0
M  V30 5 C  18.4887 38.1904 87.0797 0
M  V30 6 C  19.7752 38.1874 86.5342 0
M  V30 7 C  20.1613 39.3497 85.6282 0
M  V30 8 C  20.6396 37.0923 86.7787 0
M  V30 9 O  21.9309 37.0093 86.2726 0
M  V30 10 C  22.8617 37.9821 86.4927 0
M  V30 11 O  22.7818 38.7596 87.4529 0
M  V30 12 N  23.8720 38.0314 85.4911 0
M  V30 13 C  24.6399 39.2254 85.4569 0
M  V30 14 C  25.9095 39.2310 86.0486 0
M  V30 15 C  26.7011 40.3762 86.0018 0
M  V30 16 C  26.2412 41.5397 85.3858 0
M  V30 17 O  27.1012 42.6170 85.3786 0
M  V30 18 C  26.6849 43.8442 84.7828 0
M  V30 19 C  24.9581 41.5411 84.8191 0
M  V30 20 C  24.1461 40.3932 84.8421 0
M  V30 21 O  22.8821 40.3465 84.2773 0
M  V30 22 C  22.3148 41.5289 83.7188 0
M  V30 23 C  24.1276 37.0440 84.4769 0
M  V30 24 N  25.4246 36.8892 84.0559 0
M  V30 25 C  25.6803 36.0365 83.0224 0
M  V30 26 N  24.7483 35.2489 82.4396 0
M  V30 27 C  23.4716 35.3871 82.8668 0
M  V30 28 C  23.1061 36.2977 83.8553 0
M  V30 29 N  26.9584 35.9482 82.4497 0
M  V30 30 C  28.2323 36.3518 82.8887 0
M  V30 31 C  29.3321 35.6810 82.3590 0
M  V30 32 C  30.6243 36.0093 82.7561 0
M  V30 33 C  30.8519 37.0147 83.7067 0
M  V30 34 C  29.7421 37.6926 84.2292 0
M  V30 35 C  28.4489 37.3734 83.8197 0
M  V30 36 N  32.1540 37.3256 84.1054 0
M  V30 37 C  33.2306 36.3278 84.2616 0
M  V30 38 C  33.7161 36.1127 85.7179 0
M  V30 39 N  34.0880 37.4651 86.3616 0 CHG=1
M  V30 40 C  34.5026 37.2598 87.8348 0
M  V30 41 C  32.8814 38.4174 86.2493 0
M  V30 42 C  32.5564 38.5900 84.7492 0
M  V30 43 H  21.3085 34.3529 86.7302 0
M  V30 44 H  21.9264 34.9849 88.2421 0
M  V30 45 H  20.4846 33.9560 88.2346 0
M  V30 46 H  18.4841 35.1761 88.6092 0
M  V30 47 H  17.0367 37.1332 88.2517 0
M  V30 48 H  17.8224 39.0292 86.9112 0
M  V30 49 H  20.6867 38.9790 84.7484 0
M  V30 50 H  19.2880 39.8890 85.2635 0
M  V30 51 H  20.8085 40.0551 86.1465 0
M  V30 52 H  26.2849 38.3418 86.5336 0
M  V30 53 H  27.6820 40.3635 86.4495 0
M  V30 54 H  27.4866 44.5781 84.8713 0
M  V30 55 H  26.4665 43.7272 83.7209 0
M  V30 56 H  25.8063 44.2533 85.2831 0
M  V30 57 H  24.5958 42.4413 84.3474 0
M  V30 58 H  21.2964 41.3201 83.3912 0
M  V30 59 H  22.2559 42.3350 84.4523 0
M  V30 60 H  22.8780 41.8746 82.8499 0
M  V30 61 H  22.7283 34.7755 82.3823 0
M  V30 62 H  22.0577 36.4094 84.0676 0
M  V30 63 H  26.9819 35.4065 81.5911 0
M  V30 64 H  29.1971 34.8909 81.6354 0
M  V30 65 H  31.4478 35.4742 82.3076 0
M  V30 66 H  29.8633 38.4706 84.9683 0
M  V30 67 H  27.6334 37.9337 84.2423 0
M  V30 68 H  32.8984 35.3538 83.9039 0
M  V30 69 H  34.0630 36.5984 83.6089 0
M  V30 70 H  34.6362 35.5276 85.7364 0
M  V30 71 H  32.9724 35.6238 86.3483 0
M  V30 72 H  33.6649 36.8182 88.3775 0
M  V30 73 H  35.3664 36.5916 87.8383 0
M  V30 74 H  34.7665 38.2389 88.2381 0
M  V30 75 H  33.1728 39.3615 86.7104 0
M  V30 76 H  32.0591 37.9785 86.8209 0
M  V30 77 H  33.4091 39.0038 84.2076 0
M  V30 78 H  31.7800 39.3453 84.6381 0
M  V30 79 H  34.8536 37.8648 85.8332 0
M  V30 END ATOM
M  V30 BEGIN BOND
M  V30 1 1 1 2
M  V30 2 1 1 43
M  V30 3 1 1 44
M  V30 4 1 1 45
M  V30 5 2 2 3
M  V30 6 1 2 8
M  V30 7 1 3 4
M  V30 8 1 3 46
M  V30 9 2 4 5
M  V30 10 1 4 47
M  V30 11 1 5 6
M  V30 12 1 5 48
M  V30 13 1 6 7
M  V30 14 2 6 8
M  V30 15 1 7 49
M  V30 16 1 7 50
M  V30 17 1 7 51
M  V30 18 1 8 9
M  V30 19 1 9 10
M  V30 20 2 10 11
M  V30 21 1 10 12
M  V30 22 1 12 13
M  V30 23 1 12 23
M  V30 24 2 13 14
M  V30 25 1 13 20
M  V30 26 1 14 15
M  V30 27 1 14 52
M  V30 28 2 15 16
M  V30 29 1 15 53
M  V30 30 1 16 17
M  V30 31 1 16 19
M  V30 32 1 17 18
M  V30 33 1 18 54
M  V30 34 1 18 55
M  V30 35 1 18 56
M  V30 36 2 19 20
M  V30 37 1 19 57
M  V30 38 1 20 21
M  V30 39 1 21 22
M  V30 40 1 22 58
M  V30 41 1 22 59
M  V30 42 1 22 60
M  V30 43 2 23 24
M  V30 44 1 23 28
M  V30 45 1 24 25
M  V30 46 2 25 26
M  V30 47 1 25 29
M  V30 48 1 26 27
M  V30 49 2 27 28
M  V30 50 1 27 61
M  V30 51 1 28 62
M  V30 52 1 29 30
M  V30 53 1 29 63
M  V30 54 2 30 31
M  V30 55 1 30 35
M  V30 56 1 31 32
M  V30 57 1 31 64
M  V30 58 2 32 33
M  V30 59 1 32 65
M  V30 60 1 33 34
M  V30 61 1 33 36
M  V30 62 2 34 35
M  V30 63 1 34 66
M  V30 64 1 35 67
M  V30 65 1 36 37
M  V30 66 1 36 42
M  V30 67 1 37 38
M  V30 68 1 37 68
M  V30 69 1 37 69
M  V30 70 1 38 39
M  V30 71 1 38 70
M  V30 72 1 38 71
M  V30 73 1 39 40
M  V30 74 1 39 41
M  V30 75 1 39 79
M  V30 76 1 40 72
M  V30 77 1 40 73
M  V30 78 1 40 74
M  V30 79 1 41 42
M  V30 80 1 41 75
M  V30 81 1 41 76
M  V30 82 1 42 77
M  V30 83 1 42 78
M  V30 END BOND
M  V30 END CTAB
M  END
> <s_m_entry_id>
31

> <s_m_entry_name>
result.6130

> <s_m_Source_Path>
D:\OneDrive - zju.edu.cn\DOC\A-Finished\LCK_VS\Planet\LCK-8617

> <s_m_Source_File>
glide-dock_SP_top1262_2_pv.maegz

> <i_m_Source_File_Index>
31

> <PLANET_affinity>
8.308

> <i_lp_mmshare_version>
54117

> <i_f3d_flags>
0

> <s_epik_input>
W0NIM11jMVtjSF1bY0hdW2NIXWMoW0NIM10pYzFPQyg9TylOKGMyW2NIXVtjSF1jKE9bQ0gzXSlbY0hdYzJPW0NIM10pYzNuYyhuW2NIXVtjSF0zKVtOSF1jNFtjSF1bY0hdYyhbY0hdW2NIXTQpTjVbQ0gyXVtDSDJdTihbQ0gzXSlbQ0gyXVtDSDJdNQ==

> <s_epik_cmdline>
J2VwaWtfcHl0aG9uJywgJy1waCcsICc3LjAnLCAnLXRuJywgJzgnLCAnLW1hJywgJzUwMCcsICctaW1hZScsICc8aW5maWxlLm1hZT4nLCAnLW9tYWUnLCAnPG91dGZpbGUubWFlPic=

> <r_epik_Ionization_Penalty>
  0.0730

> <r_epik_Ionization_Penalty_Charging>
  0.0647

> <r_epik_Ionization_Penalty_Neutral>
  0.0083

> <r_epik_State_Penalty>
  0.4007

> <r_epik_Charging_Adjusted_Penalty>
0.465418

> <i_epik_Tot_Q>
1

> <i_epik_Tot_abs_Q>
1

> <s_lp_Force_Field>
S-OPLS

> <r_lp_Energy>
86.2232

> <b_lp_Chiralities_Consistent>
1

> <s_lp_Variant>
O=C(OC1=C(C)C=CC=C1C)N(C2=CC=C(OC)C=C2OC)C3=NC(NC4=CC=C(N5CCN(C)CC5)C=C4)=NC=C3-1

> <s_i_glide_gridfile>
glide-grid_1

> <i_i_glide_lignum>
963

> <i_i_glide_rotatable_bonds>
10

> <r_i_docking_score>
-9.78476933720061

> <r_i_glide_ligand_efficiency>
-0.232970698504777

> <r_i_glide_ligand_efficiency_sa>
-0.809812354471474

> <r_i_glide_ligand_efficiency_ln>
-2.06531272240676

> <r_i_glide_gscore>
-10.1854693372006

> <r_i_glide_lipo>
-3.88251561863761

> <r_i_glide_hbond>
-0.517893138830167

> <r_i_glide_metal>
0

> <r_i_glide_rewards>
-1.3822666506075

> <r_i_glide_evdw>
-58.3191299438477

> <r_i_glide_ecoul>
-11.8644905090332

> <r_i_glide_erotb>
0.296993603961094

> <r_i_glide_esite>
-0.0041574595390729

> <r_i_glide_emodel>
-114.370930728307

> <r_i_glide_energy>
-70.1836204528809

> <r_i_glide_einternal>
7.65971565246582

> <i_i_glide_confnum>
82

> <i_i_glide_posenum>
47

> <r_i_glide_eff_state_penalty>
0.4007

> <r_lp_tautomer_probability>
1

> <s_m_subgroup_title>
glide-dock_SP_top1262_2_pv

> <s_m_subgroupid>
glide-dock_SP_top1262_2_pv

> <b_m_subgroup_collapsed>
0

$$$$
O=C(OC1CCN(CCC(NC2=CC(OC)=C(CNC[C@H](O)C3=CC=C(O)C4=C3C=CC(N4)=O)C=C2Cl)=O)CC...
                    3D
 Schrodinger Suite 2021-3.
  0  0  0     0  0            999 V3000
M  V30 BEGIN CTAB
M  V30 COUNTS 97 102 0 0 0
M  V30 BEGIN ATOM
M  V30 1 C  23.0146 35.9596 84.4476 0
M  V30 2 C  24.2347 35.9559 83.7776 0
M  V30 3 C  25.2834 36.7363 84.2615 0
M  V30 4 C  25.1155 37.5326 85.3912 0
M  V30 5 C  23.8882 37.5513 86.0437 0
M  V30 6 C  22.8364 36.7473 85.5921 0
M  V30 7 C  21.5682 36.6603 86.3692 0
M  V30 8 C  21.2029 35.4138 86.8903 0
M  V30 9 C  20.0468 35.2589 87.6439 0
M  V30 10 C  19.2003 36.3443 87.8513 0
M  V30 11 C  19.5446 37.5955 87.3534 0
M  V30 12 C  20.7459 37.7732 86.6503 0
M  V30 13 N  21.1270 39.0503 86.2123 0
M  V30 14 C  21.0690 40.2111 86.9707 0
M  V30 15 O  20.5774 40.3382 88.0959 0
M  V30 16 O  21.7174 41.1867 86.3091 0
M  V30 17 C  22.0334 42.4297 86.9446 0 CFG=2
M  V30 18 C  22.3531 43.4660 85.8638 0
M  V30 19 C  23.6263 43.1369 85.0665 0
M  V30 20 N  24.8146 42.9241 86.0372 0 CHG=1 CFG=1
M  V30 21 C  24.5196 41.8697 87.1353 0
M  V30 22 C  23.2452 42.2911 87.8944 0
M  V30 23 C  26.1448 42.6400 85.2821 0
M  V30 24 C  26.0863 41.3914 84.3597 0
M  V30 25 C  27.4866 40.8219 84.0939 0
M  V30 26 O  28.3780 41.5552 83.6650 0
M  V30 27 N  27.6566 39.5131 84.3558 0
M  V30 28 C  28.8833 38.8333 84.3685 0
M  V30 29 C  28.9890 37.6923 83.5730 0
M  V30 30 C  30.1593 36.9193 83.5659 0
M  V30 31 O  30.3270 35.7835 82.7977 0
M  V30 32 C  29.2360 35.2716 82.0447 0
M  V30 33 C  31.2293 37.3055 84.3860 0
M  V30 34 C  31.1126 38.4220 85.2162 0
M  V30 35 C  29.9440 39.1825 85.2268 0
M  V30 36 Cl 29.8386 40.4916 86.3588 0
M  V30 37 C  32.4922 36.4568 84.4433 0
M  V30 38 N  33.5283 36.8717 83.3933 0 CHG=1
M  V30 39 C  34.6948 35.8728 83.2381 0
M  V30 40 C  35.8297 36.4727 82.3742 0 CFG=2
M  V30 41 O  36.4607 37.4936 83.1304 0
M  V30 42 C  35.3569 36.9393 80.9841 0
M  V30 43 C  35.1557 38.3053 80.7305 0
M  V30 44 C  34.7231 38.7523 79.4865 0
M  V30 45 C  34.4910 37.8505 78.4542 0
M  V30 46 O  34.0832 38.3564 77.2439 0
M  V30 47 C  35.1082 36.0214 79.9439 0
M  V30 48 C  34.6868 36.4787 78.6752 0
M  V30 49 C  35.2571 34.5520 80.0848 0
M  V30 50 C  35.0104 33.7270 79.0426 0
M  V30 51 C  34.6306 34.1943 77.7216 0
M  V30 52 O  34.4824 33.4791 76.7380 0
M  V30 53 N  34.4827 35.5332 77.6437 0
M  V30 54 H  22.2154 35.3246 84.0870 0
M  V30 55 H  24.3719 35.3378 82.9034 0
M  V30 56 H  26.2359 36.7023 83.7597 0
M  V30 57 H  25.9344 38.1107 85.7904 0
M  V30 58 H  23.7681 38.1485 86.9364 0
M  V30 59 H  21.8180 34.5442 86.7224 0
M  V30 60 H  19.7897 34.2877 88.0436 0
M  V30 61 H  18.2841 36.2147 88.4101 0
M  V30 62 H  18.8812 38.4288 87.5407 0
M  V30 63 H  21.6537 39.0999 85.3552 0
M  V30 64 H  21.1542 42.7702 87.5028 0
M  V30 65 H  21.4954 43.5568 85.2004 0
M  V30 66 H  22.4681 44.4484 86.3226 0
M  V30 67 H  23.9046 43.9830 84.4433 0
M  V30 68 H  23.5118 42.2431 84.4564 0
M  V30 69 H  25.3887 41.8328 87.7942 0
M  V30 70 H  24.3914 40.8996 86.6555 0
M  V30 71 H  23.4283 43.2536 88.3715 0
M  V30 72 H  23.0171 41.6049 88.7099 0
M  V30 73 H  26.3509 43.5537 84.7191 0
M  V30 74 H  26.8915 42.5566 86.0766 0
M  V30 75 H  25.4465 40.6124 84.7681 0
M  V30 76 H  25.6543 41.6632 83.3973 0
M  V30 77 H  26.8299 38.9392 84.4058 0
M  V30 78 H  28.1616 37.4217 82.9355 0
M  V30 79 H  29.5535 34.3798 81.5043 0
M  V30 80 H  28.3995 34.9880 82.6836 0
M  V30 81 H  28.8913 35.9908 81.3025 0
M  V30 82 H  31.9178 38.6940 85.8843 0
M  V30 83 H  33.0034 36.5226 85.4061 0
M  V30 84 H  32.2839 35.4007 84.2512 0
M  V30 85 H  33.0647 36.9656 82.4989 0
M  V30 86 H  35.0347 35.6186 84.2446 0
M  V30 87 H  34.2557 34.9782 82.7945 0
M  V30 88 H  36.6072 35.7222 82.2231 0
M  V30 89 H  36.8412 37.1061 83.9242 0
M  V30 90 H  35.3353 39.0383 81.5049 0
M  V30 91 H  34.5737 39.8097 79.3202 0
M  V30 92 H  33.7285 37.7099 76.6195 0
M  V30 93 H  35.5408 34.1100 81.0257 0
M  V30 94 H  35.0979 32.6580 79.1725 0
M  V30 95 H  34.1955 35.8309 76.7190 0
M  V30 96 H  33.9027 37.7800 83.6327 0
M  V30 97 H  24.9288 43.8034 86.5237 0
M  V30 END ATOM
M  V30 BEGIN BOND
M  V30 1 2 1 2
M  V30 2 1 1 6
M  V30 3 1 1 54
M  V30 4 1 2 3
M  V30 5 1 2 55
M  V30 6 2 3 4
M  V30 7 1 3 56
M  V30 8 1 4 5
M  V30 9 1 4 57
M  V30 10 2 5 6
M  V30 11 1 5 58
M  V30 12 1 6 7
M  V30 13 2 7 8
M  V30 14 1 7 12
M  V30 15 1 8 9
M  V30 16 1 8 59
M  V30 17 2 9 10
M  V30 18 1 9 60
M  V30 19 1 10 11
M  V30 20 1 10 61
M  V30 21 2 11 12
M  V30 22 1 11 62
M  V30 23 1 12 13
M  V30 24 1 13 14
M  V30 25 1 13 63
M  V30 26 2 14 15
M  V30 27 1 14 16
M  V30 28 1 16 17
M  V30 29 1 17 18
M  V30 30 1 17 22
M  V30 31 1 17 64
M  V30 32 1 18 19
M  V30 33 1 18 65
M  V30 34 1 18 66
M  V30 35 1 19 20
M  V30 36 1 19 67
M  V30 37 1 19 68
M  V30 38 1 20 21
M  V30 39 1 20 23
M  V30 40 1 20 97
M  V30 41 1 21 22
M  V30 42 1 21 69
M  V30 43 1 21 70
M  V30 44 1 22 71
M  V30 45 1 22 72
M  V30 46 1 23 24
M  V30 47 1 23 73
M  V30 48 1 23 74
M  V30 49 1 24 25
M  V30 50 1 24 75
M  V30 51 1 24 76
M  V30 52 2 25 26
M  V30 53 1 25 27
M  V30 54 1 27 28
M  V30 55 1 27 77
M  V30 56 2 28 29
M  V30 57 1 28 35
M  V30 58 1 29 30
M  V30 59 1 29 78
M  V30 60 1 30 31
M  V30 61 2 30 33
M  V30 62 1 31 32
M  V30 63 1 32 79
M  V30 64 1 32 80
M  V30 65 1 32 81
M  V30 66 1 33 34
M  V30 67 1 33 37
M  V30 68 2 34 35
M  V30 69 1 34 82
M  V30 70 1 35 36
M  V30 71 1 37 38
M  V30 72 1 37 83
M  V30 73 1 37 84
M  V30 74 1 38 39
M  V30 75 1 38 85
M  V30 76 1 38 96
M  V30 77 1 39 40
M  V30 78 1 39 86
M  V30 79 1 39 87
M  V30 80 1 40 41
M  V30 81 1 40 42
M  V30 82 1 40 88
M  V30 83 1 41 89
M  V30 84 2 42 43
M  V30 85 1 42 47
M  V30 86 1 43 44
M  V30 87 1 43 90
M  V30 88 2 44 45
M  V30 89 1 44 91
M  V30 90 1 45 46
M  V30 91 1 45 48
M  V30 92 1 46 92
M  V30 93 2 47 48
M  V30 94 1 47 49
M  V30 95 1 48 53
M  V30 96 2 49 50
M  V30 97 1 49 93
M  V30 98 1 50 51
M  V30 99 1 50 94
M  V30 100 2 51 52
M  V30 101 1 51 53
M  V30 102 1 53 95
M  V30 END BOND
M  V30 END CTAB
M  END
> <s_m_entry_id>
36

> <s_m_entry_name>
result.818

> <s_m_Source_Path>
D:\OneDrive - zju.edu.cn\DOC\A-Finished\LCK_VS\Planet\LCK-8617

> <s_m_Source_File>
glide-dock_SP_top1262_2_pv.maegz

> <i_m_Source_File_Index>
36

> <PLANET_affinity>
10.257

> <i_lp_mmshare_version>
54117

> <i_f3d_flags>
0

> <s_epik_input>
W2NIXTFbY0hdW2NIXVtjSF1bY0hdYzEtYzJbY0hdW2NIXVtjSF1bY0hdYzJbTkhdQyg9TylPW0NIXTNbQ0gyXVtDSDJdTihbQ0gyXVtDSDJdMylbQ0gyXVtDSDJdQyg9TylbTkhdYzRbY0hdYyhPW0NIM10pYyhbY0hdYzRDbClbQ0gyXVtOSF1bQ0gyXVtDQEhdKFtPSF0pYzVbY0hdW2NIXWMoW09IXSljKGM1NilbbkhdYyg9TylbY0hdW2NIXTY=

> <s_epik_cmdline>
J2VwaWtfcHl0aG9uJywgJy1waCcsICc3LjAnLCAnLXRuJywgJzgnLCAnLW1hJywgJzUwMCcsICctaW1hZScsICc8aW5maWxlLm1hZT4nLCAnLW9tYWUnLCAnPG91dGZpbGUubWFlPic=

> <r_epik_Ionization_Penalty>
  0.0868

> <r_epik_Ionization_Penalty_Charging>
  0.0542

> <r_epik_Ionization_Penalty_Neutral>
  0.0326

> <r_epik_State_Penalty>
  0.0685

> <r_epik_Charging_Adjusted_Penalty>
0.122679

> <i_epik_Tot_Q>
2

> <i_epik_Tot_abs_Q>
2

> <s_epik_Chemistry_Notes>
This compound has an ester and may undergo hydrolysis at high or low pH.

> <s_lp_Force_Field>
S-OPLS

> <r_lp_Energy>
77.8901

> <b_lp_Chiralities_Consistent>
1

> <s_lp_Variant>
O=C(OC1CCN(CCC(NC2=CC(OC)=C(CNC[C@H](O)C3=CC=C(O)C4=C3C=CC(N4)=O)C=C2Cl)=O)CC...-2

> <s_i_glide_gridfile>
glide-grid_1

> <i_i_glide_lignum>
227

> <i_i_glide_rotatable_bonds>
18

> <r_i_docking_score>
-9.71838127725011

> <r_i_glide_ligand_efficiency>
-0.183365684476417

> <r_i_glide_ligand_efficiency_sa>
-0.688773907500217

> <r_i_glide_ligand_efficiency_ln>
-1.95529386327425

> <r_i_glide_gscore>
-9.78688127725011

> <r_i_glide_lipo>
-3.64014661062986

> <r_i_glide_hbond>
-0.731942243635313

> <r_i_glide_metal>
0

> <r_i_glide_rewards>
-0.0204337495098516

> <r_i_glide_evdw>
-55.8748817443848

> <r_i_glide_ecoul>
-19.757230758667

> <r_i_glide_erotb>
0.397957301522653

> <r_i_glide_esite>
-0.0349872739784481

> <r_i_glide_emodel>
-121.746208523742

> <r_i_glide_energy>
-75.6321125030518

> <r_i_glide_einternal>
12.6067018508911

> <i_i_glide_confnum>
927

> <i_i_glide_posenum>
320

> <r_i_glide_eff_state_penalty>
0.0685

> <r_lp_tautomer_probability>
1

> <s_m_subgroup_title>
glide-dock_SP_top1262_2_pv

> <s_m_subgroupid>
glide-dock_SP_top1262_2_pv

> <b_m_subgroup_collapsed>
0

$$$$
O=C1C(C2=C(Cl)C=CC=C2Cl)=CC3=CN=C(NC4=CC=CC(SC)=C4)N=C3N1C
                    3D
 Schrodinger Suite 2021-3.
  0  0  0     0  0            999 V3000
M  V30 BEGIN CTAB
M  V30 COUNTS 45 48 0 0 0
M  V30 BEGIN ATOM
M  V30 1 Cl 21.4518 34.7569 87.6579 0
M  V30 2 C  20.3710 36.0326 87.2064 0
M  V30 3 C  19.1275 36.0977 87.8359 0
M  V30 4 C  18.2230 37.1054 87.5115 0
M  V30 5 C  18.5575 38.0471 86.5435 0
M  V30 6 C  19.7972 37.9908 85.9028 0
M  V30 7 Cl 20.1555 39.1955 84.7152 0
M  V30 8 C  20.7271 36.9863 86.2342 0
M  V30 9 C  22.0799 36.9527 85.6176 0
M  V30 10 C  22.3210 36.1546 84.5489 0
M  V30 11 C  23.1370 37.7606 86.2468 0
M  V30 12 O  22.8948 38.5171 87.1932 0
M  V30 13 N  24.3930 37.5944 85.7104 0
M  V30 14 C  25.5112 38.3481 86.3180 0
M  V30 15 C  24.6991 36.7461 84.6050 0
M  V30 16 C  23.6693 36.0199 83.9937 0
M  V30 17 N  25.9845 36.6614 84.1628 0
M  V30 18 C  26.2231 35.8560 83.0961 0
M  V30 19 N  25.2830 35.1230 82.4514 0
M  V30 20 C  24.0072 35.2141 82.9050 0
M  V30 21 N  27.5209 35.7151 82.5962 0
M  V30 22 C  28.7359 36.3592 82.8731 0
M  V30 23 C  29.9127 35.7455 82.4386 0
M  V30 24 C  31.1479 36.3622 82.6362 0
M  V30 25 C  31.2160 37.6069 83.2623 0
M  V30 26 C  30.0444 38.2340 83.6950 0
M  V30 27 C  28.8144 37.6043 83.5100 0
M  V30 28 S  30.0635 39.8313 84.4597 0
M  V30 29 C  31.7225 40.5466 84.2909 0
M  V30 30 H  18.8639 35.3585 88.5773 0
M  V30 31 H  17.2630 37.1567 88.0054 0
M  V30 32 H  17.8529 38.8291 86.2981 0
M  V30 33 H  21.5245 35.5624 84.1264 0
M  V30 34 H  26.2917 37.6599 86.6463 0
M  V30 35 H  25.9518 39.0218 85.5817 0
M  V30 36 H  25.2299 38.9512 87.1832 0
M  V30 37 H  23.2695 34.6196 82.3885 0
M  V30 38 H  27.5620 35.1123 81.7854 0
M  V30 39 H  29.8782 34.7883 81.9364 0
M  V30 40 H  32.0504 35.8777 82.2929 0
M  V30 41 H  32.1804 38.0713 83.3978 0
M  V30 42 H  27.9252 38.1230 83.8281 0
M  V30 43 H  31.7338 41.5570 84.7006 0
M  V30 44 H  32.4583 39.9496 84.8290 0
M  V30 45 H  32.0090 40.6043 83.2408 0
M  V30 END ATOM
M  V30 BEGIN BOND
M  V30 1 1 1 2
M  V30 2 2 2 3
M  V30 3 1 2 8
M  V30 4 1 3 4
M  V30 5 1 3 30
M  V30 6 2 4 5
M  V30 7 1 4 31
M  V30 8 1 5 6
M  V30 9 1 5 32
M  V30 10 1 6 7
M  V30 11 2 6 8
M  V30 12 1 8 9
M  V30 13 2 9 10
M  V30 14 1 9 11
M  V30 15 1 10 16
M  V30 16 1 10 33
M  V30 17 2 11 12
M  V30 18 1 11 13
M  V30 19 1 13 14
M  V30 20 1 13 15
M  V30 21 1 14 34
M  V30 22 1 14 35
M  V30 23 1 14 36
M  V30 24 1 15 16
M  V30 25 2 15 17
M  V30 26 2 16 20
M  V30 27 1 17 18
M  V30 28 2 18 19
M  V30 29 1 18 21
M  V30 30 1 19 20
M  V30 31 1 20 37
M  V30 32 1 21 22
M  V30 33 1 21 38
M  V30 34 2 22 23
M  V30 35 1 22 27
M  V30 36 1 23 24
M  V30 37 1 23 39
M  V30 38 2 24 25
M  V30 39 1 24 40
M  V30 40 1 25 26
M  V30 41 1 25 41
M  V30 42 2 26 27
M  V30 43 1 26 28
M  V30 44 1 27 42
M  V30 45 1 28 29
M  V30 46 1 29 43
M  V30 47 1 29 44
M  V30 48 1 29 45
M  V30 END BOND
M  V30 END CTAB
M  END
> <s_m_entry_id>
37

> <s_m_entry_name>
result.1024

> <s_m_Source_Path>
D:\OneDrive - zju.edu.cn\DOC\A-Finished\LCK_VS\Planet\LCK-8617

> <s_m_Source_File>
glide-dock_SP_top1262_2_pv.maegz

> <i_m_Source_File_Index>
37

> <PLANET_affinity>
7.776

> <i_lp_mmshare_version>
54117

> <i_f3d_flags>
0

> <s_epik_input>
Q2xjMVtjSF1bY0hdW2NIXWMoQ2wpYzEtYyhjKD1PKW4yW0NIM10pW2NIXWMoYzIzKVtjSF1uYyhuMylbTkhdYzRbY0hdW2NIXVtjSF1jKFtjSF00KVNbQ0gzXQ==

> <s_epik_cmdline>
J2VwaWtfcHl0aG9uJywgJy1waCcsICc3LjAnLCAnLXRuJywgJzgnLCAnLW1hJywgJzUwMCcsICctaW1hZScsICc8aW5maWxlLm1hZT4nLCAnLW9tYWUnLCAnPG91dGZpbGUubWFlPic=

> <r_epik_Ionization_Penalty>
  0.0000

> <r_epik_Ionization_Penalty_Charging>
  0.0000

> <r_epik_Ionization_Penalty_Neutral>
  0.0000

> <r_epik_State_Penalty>
  0.0000

> <r_epik_Charging_Adjusted_Penalty>
8.55514e-09

> <i_epik_Tot_Q>
0

> <i_epik_Tot_abs_Q>
0

> <s_epik_Chemistry_Notes>
This compound has an imine and may undergo hydrolysis.

> <s_lp_Force_Field>
S-OPLS

> <r_lp_Energy>
51.7651

> <b_lp_Chiralities_Consistent>
1

> <s_lp_Variant>
O=C1C(C2=C(Cl)C=CC=C2Cl)=CC3=CN=C(NC4=CC=CC(SC)=C4)N=C3N1C-1

> <s_i_glide_gridfile>
glide-grid_1

> <i_i_glide_lignum>
1537

> <i_i_glide_rotatable_bonds>
4

> <r_i_docking_score>
-9.68761268055732

> <r_i_glide_ligand_efficiency>
-0.33405560967439

> <r_i_glide_ligand_efficiency_sa>
-1.02632466916539

> <r_i_glide_ligand_efficiency_ln>
-2.21821764718588

> <r_i_glide_gscore>
-9.68761268055732

> <r_i_glide_lipo>
-3.76168997596604

> <r_i_glide_hbond>
-0.565365850960966

> <r_i_glide_metal>
0

> <r_i_glide_rewards>
-2.28737529448565

> <r_i_glide_evdw>
-48.9771575927734

> <r_i_glide_ecoul>
-5.43382453918457

> <r_i_glide_erotb>
0.213579796783085

> <r_i_glide_esite>
-0.0228297954113937

> <r_i_glide_emodel>
-87.0296477122088

> <r_i_glide_energy>
-54.410982131958

> <r_i_glide_einternal>
1.8732967376709

> <i_i_glide_confnum>
13

> <i_i_glide_posenum>
59

> <r_i_glide_eff_state_penalty>
0

> <r_lp_tautomer_probability>
1

> <s_m_subgroup_title>
glide-dock_SP_top1262_2_pv

> <s_m_subgroupid>
glide-dock_SP_top1262_2_pv

> <b_m_subgroup_collapsed>
0

$$$$
NC1CCN(C2=CC=CC3=C2N=C(N4C5=CC=C(C=C5N=C4)OCC6(COC6)C)C=C3)CC1
                    3D
 Schrodinger Suite 2021-3.
  0  0  0     0  0            999 V3000
M  V30 BEGIN CTAB
M  V30 COUNTS 63 68 0 0 0
M  V30 BEGIN ATOM
M  V30 1 N  23.0118 43.1563 85.2458 0 CHG=1
M  V30 2 C  24.4191 42.8175 85.7806 0
M  V30 3 C  24.6059 41.2891 85.8673 0
M  V30 4 C  26.0838 40.9110 86.1321 0
M  V30 5 N  26.9913 41.4327 85.0906 0
M  V30 6 C  26.9039 42.9061 85.1260 0
M  V30 7 C  25.4785 43.4191 84.8435 0
M  V30 8 C  28.2252 40.7884 84.9057 0
M  V30 9 C  29.4194 41.4932 85.1313 0
M  V30 10 C  30.6668 40.9084 84.9892 0
M  V30 11 C  30.7877 39.5829 84.6089 0
M  V30 12 C  28.3301 39.4060 84.4930 0
M  V30 13 C  29.6312 38.8179 84.3478 0
M  V30 14 N  27.2083 38.6682 84.2068 0
M  V30 15 C  27.3352 37.3758 83.8002 0
M  V30 16 C  28.5767 36.7565 83.6443 0
M  V30 17 C  29.7294 37.4733 83.9244 0
M  V30 18 N  26.1515 36.6565 83.5131 0
M  V30 19 C  26.0196 35.6778 82.5478 0
M  V30 20 N  24.8288 35.1573 82.4433 0
M  V30 21 C  24.0926 35.8314 83.3719 0
M  V30 22 C  24.8924 36.7515 84.0992 0
M  V30 23 C  22.7244 35.7153 83.6436 0
M  V30 24 C  22.1644 36.5031 84.6491 0
M  V30 25 C  22.9847 37.3707 85.3920 0
M  V30 26 C  24.3527 37.5141 85.1409 0
M  V30 27 O  20.8015 36.3571 84.8151 0
M  V30 28 C  20.0593 37.1062 85.7762 0
M  V30 29 C  19.3824 38.3215 85.1008 0
M  V30 30 C  20.3697 39.4810 84.8402 0
M  V30 31 C  18.5153 37.9620 83.8807 0
M  V30 32 O  17.3868 38.7584 84.4354 0
M  V30 33 C  18.0731 38.7985 85.7620 0
M  V30 34 H  22.8631 42.7273 84.3437 0
M  V30 35 H  22.2898 42.8447 85.8799 0
M  V30 36 H  24.5572 43.2474 86.7766 0
M  V30 37 H  24.3143 40.8076 84.9306 0
M  V30 38 H  23.9335 40.8552 86.6119 0
M  V30 39 H  26.1729 39.8319 86.2245 0
M  V30 40 H  26.4050 41.3068 87.0970 0
M  V30 41 H  27.2630 43.2758 86.0873 0
M  V30 42 H  27.5606 43.3224 84.3593 0
M  V30 43 H  25.4290 44.5102 84.8439 0
M  V30 44 H  25.2680 43.1529 83.8062 0
M  V30 45 H  29.4072 42.5315 85.4321 0
M  V30 46 H  31.5525 41.4995 85.1676 0
M  V30 47 H  31.7645 39.1364 84.4958 0
M  V30 48 H  28.6605 35.7309 83.3133 0
M  V30 49 H  30.7012 37.0112 83.8097 0
M  V30 50 H  26.8730 35.4029 81.9442 0
M  V30 51 H  22.1061 35.0315 83.0815 0
M  V30 52 H  22.5691 37.9756 86.1813 0
M  V30 53 H  24.9549 38.1920 85.7193 0
M  V30 54 H  20.6097 37.3771 86.6750 0
M  V30 55 H  19.2890 36.4234 86.1344 0
M  V30 56 H  21.1340 39.2003 84.1165 0
M  V30 57 H  19.8622 40.3594 84.4434 0
M  V30 58 H  20.8666 39.7909 85.7584 0
M  V30 59 H  18.1843 36.9257 83.7998 0
M  V30 60 H  18.8335 38.3599 82.9144 0
M  V30 61 H  18.0688 39.8155 86.1609 0
M  V30 62 H  17.5612 38.0935 86.4161 0
M  V30 63 H  22.9034 44.1556 85.1218 0
M  V30 END ATOM
M  V30 BEGIN BOND
M  V30 1 1 1 2
M  V30 2 1 1 34
M  V30 3 1 1 35
M  V30 4 1 1 63
M  V30 5 1 2 3
M  V30 6 1 2 7
M  V30 7 1 2 36
M  V30 8 1 3 4
M  V30 9 1 3 37
M  V30 10 1 3 38
M  V30 11 1 4 5
M  V30 12 1 4 39
M  V30 13 1 4 40
M  V30 14 1 5 6
M  V30 15 1 5 8
M  V30 16 1 6 7
M  V30 17 1 6 41
M  V30 18 1 6 42
M  V30 19 1 7 43
M  V30 20 1 7 44
M  V30 21 2 8 9
M  V30 22 1 8 12
M  V30 23 1 9 10
M  V30 24 1 9 45
M  V30 25 2 10 11
M  V30 26 1 10 46
M  V30 27 1 11 13
M  V30 28 1 11 47
M  V30 29 2 12 13
M  V30 30 1 12 14
M  V30 31 1 13 17
M  V30 32 2 14 15
M  V30 33 1 15 16
M  V30 34 1 15 18
M  V30 35 2 16 17
M  V30 36 1 16 48
M  V30 37 1 17 49
M  V30 38 1 18 19
M  V30 39 1 18 22
M  V30 40 2 19 20
M  V30 41 1 19 50
M  V30 42 1 20 21
M  V30 43 2 21 22
M  V30 44 1 21 23
M  V30 45 1 22 26
M  V30 46 2 23 24
M  V30 47 1 23 51
M  V30 48 1 24 25
M  V30 49 1 24 27
M  V30 50 2 25 26
M  V30 51 1 25 52
M  V30 52 1 26 53
M  V30 53 1 27 28
M  V30 54 1 28 29
M  V30 55 1 28 54
M  V30 56 1 28 55
M  V30 57 1 29 30
M  V30 58 1 29 31
M  V30 59 1 29 33
M  V30 60 1 30 56
M  V30 61 1 30 57
M  V30 62 1 30 58
M  V30 63 1 31 32
M  V30 64 1 31 59
M  V30 65 1 31 60
M  V30 66 1 32 33
M  V30 67 1 33 61
M  V30 68 1 33 62
M  V30 END BOND
M  V30 END CTAB
M  END
> <s_m_entry_id>
48

> <s_m_entry_name>
result.3226

> <s_m_Source_Path>
D:\OneDrive - zju.edu.cn\DOC\A-Finished\LCK_VS\Planet\LCK-8617

> <s_m_Source_File>
glide-dock_SP_top1262_2_pv.maegz

> <i_m_Source_File_Index>
48

> <PLANET_affinity>
8.412

> <i_lp_mmshare_version>
54117

> <i_f3d_flags>
0

> <s_epik_input>
W05IMl1bQ0hdMVtDSDJdW0NIMl1OKFtDSDJdW0NIMl0xKWMyW2NIXVtjSF1bY0hdYyhjMjMpW2NIXVtjSF1jKG4zKS1uKFtjSF1uNCljKGM0NSlbY0hdW2NIXWMoW2NIXTUpT1tDSDJdQzYoW0NIM10pW0NIMl1PW0NIMl02

> <s_epik_cmdline>
J2VwaWtfcHl0aG9uJywgJy1waCcsICc3LjAnLCAnLXRuJywgJzgnLCAnLW1hJywgJzUwMCcsICctaW1hZScsICc8aW5maWxlLm1hZT4nLCAnLW9tYWUnLCAnPG91dGZpbGUubWFlPic=

> <r_epik_Ionization_Penalty>
  0.0214

> <r_epik_Ionization_Penalty_Charging>
  0.0049

> <r_epik_Ionization_Penalty_Neutral>
  0.0165

> <r_epik_State_Penalty>
  0.0131

> <r_epik_Charging_Adjusted_Penalty>
0.0179272

> <i_epik_Tot_Q>
1

> <i_epik_Tot_abs_Q>
1

> <s_lp_Force_Field>
S-OPLS

> <r_lp_Energy>
63.3018

> <b_lp_Chiralities_Consistent>
1

> <s_lp_Variant>
NC1CCN(C2=CC=CC3=C2N=C(N4C5=CC=C(C=C5N=C4)OCC6(COC6)C)C=C3)CC1-1

> <s_i_glide_gridfile>
glide-grid_1

> <i_i_glide_lignum>
878

> <i_i_glide_rotatable_bonds>
5

> <r_i_docking_score>
-9.55215336104813

> <r_i_glide_ligand_efficiency>
-0.289459192759034

> <r_i_glide_ligand_efficiency_sa>
-0.92845029682537

> <r_i_glide_ligand_efficiency_ln>
-2.12434944909396

> <r_i_glide_gscore>
-9.56525336104813

> <r_i_glide_lipo>
-2.79813575079304

> <r_i_glide_hbond>
-0.758061344091713

> <r_i_glide_metal>
0

> <r_i_glide_rewards>
-2.23768609347044

> <r_i_glide_evdw>
-46.5154724121094

> <r_i_glide_ecoul>
-12.6339044570923

> <r_i_glide_erotb>
0.506034373837367

> <r_i_glide_esite>
-0.0565452573609933

> <r_i_glide_emodel>
-96.5365802354902

> <r_i_glide_energy>
-59.1493768692017

> <r_i_glide_einternal>
4.56165218353271

> <i_i_glide_confnum>
342

> <i_i_glide_posenum>
224

> <r_i_glide_eff_state_penalty>
0.0131

> <s_m_subgroup_title>
glide-dock_SP_top1262_2_pv

> <s_m_subgroupid>
glide-dock_SP_top1262_2_pv

> <b_m_subgroup_collapsed>
0

$$$$
O=C1C(N([C@H]2CN(C(C=C)=O)CCC2)N=C3C4=CC=C(OC5=CC=CC=C5)C=C4)=C3C(N)=NN1
                    3D
 Schrodinger Suite 2021-3.
  0  0  0     0  0            999 V3000
M  V30 BEGIN CTAB
M  V30 COUNTS 58 62 0 0 0
M  V30 BEGIN ATOM
M  V30 1 C  21.2830 42.4840 87.3371 0
M  V30 2 C  21.0095 41.4411 86.5301 0
M  V30 3 C  20.3273 40.2470 86.9918 0
M  V30 4 O  19.6835 40.2540 88.0434 0
M  V30 5 N  20.3971 39.1394 86.1983 0
M  V30 6 C  19.6107 37.9362 86.5344 0
M  V30 7 C  20.4753 37.0587 87.4679 0
M  V30 8 C  21.8621 36.7443 86.8854 0
M  V30 9 C  21.5644 38.8345 85.3490 0
M  V30 10 C  22.5354 37.9834 86.2178 0 CFG=2
M  V30 11 N  23.6544 37.5637 85.3629 0
M  V30 12 N  24.8600 38.1437 85.5571 0
M  V30 13 C  25.6803 37.6616 84.6421 0
M  V30 14 C  24.9751 36.7506 83.8350 0
M  V30 15 C  23.6574 36.6937 84.2929 0
M  V30 16 C  25.2739 35.9368 82.6594 0
M  V30 17 N  26.4836 36.0474 82.0435 0
M  V30 18 N  24.4052 35.1567 82.1434 0
M  V30 19 N  23.1210 35.1567 82.6749 0
M  V30 20 C  22.5716 35.9419 83.6497 0
M  V30 21 O  21.3610 35.9568 83.8595 0
M  V30 22 C  27.1146 38.1061 84.5690 0
M  V30 23 C  27.4740 39.4370 84.8166 0
M  V30 24 C  28.8133 39.8269 84.7644 0
M  V30 25 C  29.8071 38.8868 84.4887 0
M  V30 26 C  29.4558 37.5575 84.2651 0
M  V30 27 C  28.1204 37.1825 84.2702 0
M  V30 28 O  31.1262 39.2743 84.5075 0
M  V30 29 C  31.8359 39.3985 83.3316 0
M  V30 30 C  31.9274 38.3737 82.3784 0
M  V30 31 C  32.6929 38.5499 81.2299 0
M  V30 32 C  33.3824 39.7429 81.0361 0
M  V30 33 C  33.3174 40.7566 81.9875 0
M  V30 34 C  32.5423 40.5845 83.1312 0
M  V30 35 H  21.0203 42.4918 88.3854 0
M  V30 36 H  21.7727 43.3654 86.9474 0
M  V30 37 H  21.2831 41.4990 85.4888 0
M  V30 38 H  18.6202 38.1872 86.9201 0
M  V30 39 H  19.4044 37.4111 85.6004 0
M  V30 40 H  20.6114 37.5556 88.4228 0
M  V30 41 H  19.9468 36.1317 87.6935 0
M  V30 42 H  22.4829 36.4251 87.7192 0
M  V30 43 H  21.8258 35.8607 86.2545 0
M  V30 44 H  21.1910 38.2796 84.4898 0
M  V30 45 H  22.0236 39.7154 84.9040 0
M  V30 46 H  22.9490 38.6212 87.0035 0
M  V30 47 H  27.1493 36.7274 82.3775 0
M  V30 48 H  26.6985 35.5565 81.1774 0
M  V30 49 H  22.4830 34.5146 82.2135 0
M  V30 50 H  26.7167 40.1720 85.0483 0
M  V30 51 H  29.0874 40.8540 84.9574 0
M  V30 52 H  30.2121 36.8059 84.1021 0
M  V30 53 H  27.8855 36.1563 84.0435 0
M  V30 54 H  31.4221 37.4325 82.5065 0
M  V30 55 H  32.7509 37.7633 80.4914 0
M  V30 56 H  33.9750 39.8801 80.1436 0
M  V30 57 H  33.8642 41.6752 81.8402 0
M  V30 58 H  32.4833 41.3774 83.8633 0
M  V30 END ATOM
M  V30 BEGIN BOND
M  V30 1 2 1 2
M  V30 2 1 1 35
M  V30 3 1 1 36
M  V30 4 1 2 3
M  V30 5 1 2 37
M  V30 6 2 3 4
M  V30 7 1 3 5
M  V30 8 1 5 6
M  V30 9 1 5 9
M  V30 10 1 6 7
M  V30 11 1 6 38
M  V30 12 1 6 39
M  V30 13 1 7 8
M  V30 14 1 7 40
M  V30 15 1 7 41
M  V30 16 1 8 10
M  V30 17 1 8 42
M  V30 18 1 8 43
M  V30 19 1 9 10
M  V30 20 1 9 44
M  V30 21 1 9 45
M  V30 22 1 10 11
M  V30 23 1 10 46
M  V30 24 1 11 12
M  V30 25 1 11 15
M  V30 26 2 12 13
M  V30 27 1 13 14
M  V30 28 1 13 22
M  V30 29 2 14 15
M  V30 30 1 14 16
M  V30 31 1 15 20
M  V30 32 1 16 17
M  V30 33 2 16 18
M  V30 34 1 17 47
M  V30 35 1 17 48
M  V30 36 1 18 19
M  V30 37 1 19 20
M  V30 38 1 19 49
M  V30 39 2 20 21
M  V30 40 2 22 23
M  V30 41 1 22 27
M  V30 42 1 23 24
M  V30 43 1 23 50
M  V30 44 2 24 25
M  V30 45 1 24 51
M  V30 46 1 25 26
M  V30 47 1 25 28
M  V30 48 2 26 27
M  V30 49 1 26 52
M  V30 50 1 27 53
M  V30 51 1 28 29
M  V30 52 2 29 30
M  V30 53 1 29 34
M  V30 54 1 30 31
M  V30 55 1 30 54
M  V30 56 2 31 32
M  V30 57 1 31 55
M  V30 58 1 32 33
M  V30 59 1 32 56
M  V30 60 2 33 34
M  V30 61 1 33 57
M  V30 62 1 34 58
M  V30 END BOND
M  V30 END CTAB
M  END
> <s_m_entry_id>
52

> <s_m_entry_name>
result.3708

> <s_m_Source_Path>
D:\OneDrive - zju.edu.cn\DOC\A-Finished\LCK_VS\Planet\LCK-8617

> <s_m_Source_File>
glide-dock_SP_top1262_2_pv.maegz

> <i_m_Source_File_Index>
52

> <PLANET_affinity>
7.524

> <i_lp_mmshare_version>
54117

> <i_f3d_flags>
0

> <s_epik_input>
W0NIMl09W0NIXUMoPU8pTjFbQ0gyXVtDSDJdW0NIMl1bQ0BIXShbQ0gyXTEpbihjKGMyMyljKD1PKVtuSF1uYzNbTkgyXSluYzItYzRbY0hdW2NIXWMoW2NIXVtjSF00KU9jNVtjSF1bY0hdW2NIXVtjSF1bY0hdNQ==

> <s_epik_cmdline>
J2VwaWtfcHl0aG9uJywgJy1waCcsICc3LjAnLCAnLXRuJywgJzgnLCAnLW1hJywgJzUwMCcsICctaW1hZScsICc8aW5maWxlLm1hZT4nLCAnLW9tYWUnLCAnPG91dGZpbGUubWFlPic=

> <r_epik_Ionization_Penalty>
  0.0046

> <r_epik_Ionization_Penalty_Charging>
  0.0045

> <r_epik_Ionization_Penalty_Neutral>
  0.0000

> <r_epik_State_Penalty>
  0.0000

> <r_epik_Charging_Adjusted_Penalty>
0.00454322

> <i_epik_Tot_Q>
0

> <i_epik_Tot_abs_Q>
0

> <s_lp_Force_Field>
S-OPLS

> <r_lp_Energy>
47.8286

> <b_lp_Chiralities_Consistent>
1

> <s_lp_Variant>
O=C1C(N([C@H]2CN(C(C=C)=O)CCC2)N=C3C4=CC=C(OC5=CC=CC=C5)C=C4)=C3C(N)=NN1-1

> <s_i_glide_gridfile>
glide-grid_1

> <i_i_glide_lignum>
1912

> <i_i_glide_rotatable_bonds>
6

> <r_i_docking_score>
-9.53973103388969

> <r_i_glide_ligand_efficiency>
-0.280580324526167

> <r_i_glide_ligand_efficiency_sa>
-0.908971329472784

> <r_i_glide_ligand_efficiency_ln>
-2.10759416577818

> <r_i_glide_gscore>
-9.53973103388969

> <r_i_glide_lipo>
-2.94292844659941

> <r_i_glide_hbond>
-1.25996326807678

> <r_i_glide_metal>
0

> <r_i_glide_rewards>
-1.81053706846824

> <r_i_glide_evdw>
-37.6972351074219

> <r_i_glide_ecoul>
-13.489128112793

> <r_i_glide_erotb>
0.405056452363586

> <r_i_glide_esite>
-0.0231277308188105

> <r_i_glide_emodel>
-74.4306315057134

> <r_i_glide_energy>
-51.1863632202148

> <r_i_glide_einternal>
11.5034370422363

> <i_i_glide_confnum>
169

> <i_i_glide_posenum>
246

> <r_i_glide_eff_state_penalty>
0

> <r_lp_tautomer_probability>
1

> <s_m_subgroup_title>
glide-dock_SP_top1262_2_pv

> <s_m_subgroupid>
glide-dock_SP_top1262_2_pv

> <b_m_subgroup_collapsed>
0

$$$$
O=C(C1=CC(O)=C(O)C(O)=C1)O[C@H](CC2=C3O)[C@H](OC2=CC(O)=C3)C4=C(C=C([C@@H](OC...
                    3D
 Schrodinger Suite 2021-3.
  0  0  0     0  0            999 V3000
M  V30 BEGIN CTAB
M  V30 COUNTS 96 103 0 0 0
M  V30 BEGIN ATOM
M  V30 1 O  20.0847 35.0658 87.6458 0
M  V30 2 C  20.4859 36.3118 87.2388 0
M  V30 3 C  21.8122 36.4745 86.8350 0
M  V30 4 C  19.6145 37.4152 87.2292 0
M  V30 5 O  18.2946 37.2314 87.5890 0
M  V30 6 C  20.1007 38.6767 86.8542 0
M  V30 7 O  19.3066 39.7975 86.8812 0
M  V30 8 C  21.4357 38.8269 86.4680 0
M  V30 9 C  22.3150 37.7298 86.4581 0
M  V30 10 C  23.7650 37.8498 86.1204 0
M  V30 11 O  24.4747 36.8851 85.8170 0
M  V30 12 O  24.2454 39.0898 86.3567 0
M  V30 13 C  25.6277 39.3555 86.6518 0 CFG=2
M  V30 14 C  25.6142 40.5258 87.6557 0
M  V30 15 C  26.5110 39.8122 85.4423 0 CFG=2
M  V30 16 O  25.8502 40.8566 84.7428 0
M  V30 17 C  25.4722 41.9225 85.5470 0
M  V30 18 C  25.2870 41.8404 86.9455 0
M  V30 19 C  25.1947 43.0936 84.8570 0
M  V30 20 C  24.7476 44.2120 85.5497 0
M  V30 21 O  24.4793 45.3568 84.8577 0
M  V30 22 C  24.5685 44.1608 86.9280 0
M  V30 23 C  24.8242 42.9801 87.6148 0
M  V30 24 O  24.6238 42.9591 88.9692 0
M  V30 25 C  26.9277 38.6671 84.5047 0
M  V30 26 C  25.8820 38.1337 83.7594 0
M  V30 27 C  26.0082 36.9389 83.0930 0
M  V30 28 O  24.8835 36.3444 82.5729 0
M  V30 29 C  27.2449 36.3161 83.0335 0
M  V30 30 O  27.2481 35.0819 82.4431 0
M  V30 31 C  28.3994 36.9338 83.5972 0
M  V30 32 C  28.2348 38.0932 84.4085 0
M  V30 33 C  29.7427 36.3143 83.2153 0
M  V30 34 O  29.7953 35.0272 82.8506 0 CHG=1
M  V30 35 C  31.0193 37.0035 83.2099 0
M  V30 36 O  31.9282 36.5038 82.3153 0
M  V30 37 C  31.4297 38.0284 83.9475 0
M  V30 38 C  30.6909 38.7860 84.9404 0
M  V30 39 C  29.3575 38.7619 85.1360 0
M  V30 40 C  31.5312 39.6779 85.8515 0 CFG=1
M  V30 41 O  32.6242 38.9223 86.3807 0
M  V30 42 C  32.0295 40.9884 85.1439 0 CFG=1
M  V30 43 C  32.7944 41.8565 86.1607 0
M  V30 44 C  33.7470 41.0193 87.0183 0
M  V30 45 C  33.5612 39.6261 87.1120 0
M  V30 46 C  34.7998 41.5836 87.7617 0
M  V30 47 O  35.0446 42.9307 87.7210 0
M  V30 48 C  35.6136 40.7940 88.5732 0
M  V30 49 C  35.4013 39.4211 88.6521 0
M  V30 50 C  34.3779 38.8364 87.9199 0
M  V30 51 O  36.2066 38.6468 89.4460 0
M  V30 52 O  32.8788 40.7689 84.0071 0
M  V30 53 C  32.4130 40.6623 82.7261 0
M  V30 54 O  31.2197 40.7543 82.4273 0
M  V30 55 C  33.4816 40.2629 81.7559 0
M  V30 56 C  34.8360 40.1326 82.1335 0
M  V30 57 C  35.7867 39.6523 81.2350 0
M  V30 58 O  37.1038 39.5380 81.6395 0
M  V30 59 C  35.4125 39.2902 79.9386 0
M  V30 60 O  36.3187 38.7619 79.0522 0
M  V30 61 C  34.0761 39.4350 79.5459 0
M  V30 62 O  33.6804 39.0821 78.2796 0
M  V30 63 C  33.1341 39.9409 80.4416 0
M  V30 64 H  20.6946 34.3524 87.4572 0
M  V30 65 H  22.4622 35.6104 86.8464 0
M  V30 66 H  17.7148 37.9761 87.4238 0
M  V30 67 H  18.4183 39.6965 87.2427 0
M  V30 68 H  21.7914 39.8168 86.1947 0
M  V30 69 H  26.0603 38.4688 87.1247 0
M  V30 70 H  24.9150 40.3075 88.4606 0
M  V30 71 H  26.6015 40.6053 88.1179 0
M  V30 72 H  27.4098 40.3086 85.8122 0
M  V30 73 H  25.3188 43.1244 83.7855 0
M  V30 74 H  24.4832 45.1676 83.9075 0
M  V30 75 H  24.2172 45.0349 87.4538 0
M  V30 76 H  24.8637 42.1331 89.3780 0
M  V30 77 H  24.9023 38.5957 83.8052 0
M  V30 78 H  25.0093 35.4017 82.4004 0
M  V30 79 H  27.3272 35.1581 81.4692 0
M  V30 80 H  28.9558 34.5532 82.9368 0
M  V30 81 H  31.5714 35.7288 81.8554 0
M  V30 82 H  32.4532 38.3144 83.8009 0
M  V30 83 H  29.0539 39.2974 86.0279 0
M  V30 84 H  30.9516 39.9983 86.7239 0
M  V30 85 H  31.1648 41.5629 84.8031 0
M  V30 86 H  32.0606 42.3277 86.8147 0
M  V30 87 H  33.3109 42.6631 85.6450 0
M  V30 88 H  34.4669 43.4009 87.1154 0
M  V30 89 H  36.4116 41.2491 89.1378 0
M  V30 90 H  34.2092 37.7648 87.9692 0
M  V30 91 H  35.9926 37.7158 89.3704 0
M  V30 92 H  35.1652 40.3671 83.1416 0
M  V30 93 H  37.6411 39.1656 80.9389 0
M  V30 94 H  35.8891 38.5621 78.2189 0
M  V30 95 H  32.7161 39.1509 78.1840 0
M  V30 96 H  32.1058 40.0431 80.0999 0
M  V30 END ATOM
M  V30 BEGIN BOND
M  V30 1 1 1 2
M  V30 2 1 1 64
M  V30 3 2 2 3
M  V30 4 1 2 4
M  V30 5 1 3 9
M  V30 6 1 3 65
M  V30 7 1 4 5
M  V30 8 2 4 6
M  V30 9 1 5 66
M  V30 10 1 6 7
M  V30 11 1 6 8
M  V30 12 1 7 67
M  V30 13 2 8 9
M  V30 14 1 8 68
M  V30 15 1 9 10
M  V30 16 2 10 11
M  V30 17 1 10 12
M  V30 18 1 12 13
M  V30 19 1 13 14
M  V30 20 1 13 15
M  V30 21 1 13 69
M  V30 22 1 14 18
M  V30 23 1 14 70
M  V30 24 1 14 71
M  V30 25 1 15 16
M  V30 26 1 15 25
M  V30 27 1 15 72
M  V30 28 1 16 17
M  V30 29 2 17 18
M  V30 30 1 17 19
M  V30 31 1 18 23
M  V30 32 2 19 20
M  V30 33 1 19 73
M  V30 34 1 20 21
M  V30 35 1 20 22
M  V30 36 1 21 74
M  V30 37 2 22 23
M  V30 38 1 22 75
M  V30 39 1 23 24
M  V30 40 1 24 76
M  V30 41 2 25 26
M  V30 42 1 25 32
M  V30 43 1 26 27
M  V30 44 1 26 77
M  V30 45 1 27 28
M  V30 46 2 27 29
M  V30 47 1 28 78
M  V30 48 1 29 30
M  V30 49 1 29 31
M  V30 50 1 30 79
M  V30 51 2 31 32
M  V30 52 1 31 33
M  V30 53 1 32 39
M  V30 54 2 33 34
M  V30 55 1 33 35
M  V30 56 1 34 80
M  V30 57 1 35 36
M  V30 58 2 35 37
M  V30 59 1 36 81
M  V30 60 1 37 38
M  V30 61 1 37 82
M  V30 62 2 38 39
M  V30 63 1 38 40
M  V30 64 1 39 83
M  V30 65 1 40 41
M  V30 66 1 40 42
M  V30 67 1 40 84
M  V30 68 1 41 45
M  V30 69 1 42 43
M  V30 70 1 42 52
M  V30 71 1 42 85
M  V30 72 1 43 44
M  V30 73 1 43 86
M  V30 74 1 43 87
M  V30 75 2 44 45
M  V30 76 1 44 46
M  V30 77 1 45 50
M  V30 78 1 46 47
M  V30 79 2 46 48
M  V30 80 1 47 88
M  V30 81 1 48 49
M  V30 82 1 48 89
M  V30 83 2 49 50
M  V30 84 1 49 51
M  V30 85 1 50 90
M  V30 86 1 51 91
M  V30 87 1 52 53
M  V30 88 2 53 54
M  V30 89 1 53 55
M  V30 90 2 55 56
M  V30 91 1 55 63
M  V30 92 1 56 57
M  V30 93 1 56 92
M  V30 94 1 57 58
M  V30 95 2 57 59
M  V30 96 1 58 93
M  V30 97 1 59 60
M  V30 98 1 59 61
M  V30 99 1 60 94
M  V30 100 1 61 62
M  V30 101 2 61 63
M  V30 102 1 62 95
M  V30 103 1 63 96
M  V30 END BOND
M  V30 END CTAB
M  END
> <s_m_entry_id>
53

> <s_m_entry_name>
result.6060

> <s_m_Source_Path>
D:\OneDrive - zju.edu.cn\DOC\A-Finished\LCK_VS\Planet\LCK-8617

> <s_m_Source_File>
glide-dock_SP_top1262_2_pv.maegz

> <i_m_Source_File_Index>
53

> <PLANET_affinity>
9.142

> <i_lp_mmshare_version>
54117

> <i_f3d_flags>
0

> <s_epik_input>
W09IXWMxYyhbT0hdKVtjSF1jKFtjSF1jMVtPSF0pQyg9TylPW0NASF0oW0NIMl1jKGMyMyljKFtPSF0pW2NIXWMoW2NIXTMpW09IXSlbQ0BIXShPMiljKFtjSF1jKFtPSF0pYzRbT0hdKWMoYzQ1KVtjSF1jKFtjSF1jKFtPSF0pYzU9W09IK10pW0NAQEhdKE9jKGM2NylbY0hdYyhbT0hdKVtjSF1jN1tPSF0pW0NAQEhdKFtDSDJdNilPQyg9TyljOFtjSF1jKFtPSF0pYyhbT0hdKWMoW09IXSlbY0hdOA==

> <s_epik_cmdline>
J2VwaWtfcHl0aG9uJywgJy1waCcsICc3LjAnLCAnLXRuJywgJzgnLCAnLW1hJywgJzUwMCcsICctaW1hZScsICc8aW5maWxlLm1hZT4nLCAnLW9tYWUnLCAnPG91dGZpbGUubWFlPic=

> <r_epik_Ionization_Penalty>
  0.1612

> <r_epik_Ionization_Penalty_Charging>
  0.0000

> <r_epik_Ionization_Penalty_Neutral>
  0.1612

> <r_epik_State_Penalty>
  0.1183

> <r_epik_Charging_Adjusted_Penalty>
0.118328

> <i_epik_Tot_Q>
1

> <i_epik_Tot_abs_Q>
1

> <s_epik_Chemistry_Notes>
This compound has an ester and may undergo hydrolysis at high or low pH.

> <s_lp_Force_Field>
S-OPLS

> <r_lp_Energy>
63.8874

> <b_lp_Chiralities_Consistent>
1

> <s_lp_Variant>
O=C(C1=CC(O)=C(O)C(O)=C1)O[C@H](CC2=C3O)[C@H](OC2=CC(O)=C3)C4=C(C=C([C@@H](OC...-1

> <s_i_glide_gridfile>
glide-grid_1

> <i_i_glide_lignum>
455

> <i_i_glide_rotatable_bonds>
21

> <r_i_docking_score>
-9.53638336256865

> <r_i_glide_ligand_efficiency>
-0.151371164485217

> <r_i_glide_ligand_efficiency_sa>
-0.602314522280748

> <r_i_glide_ligand_efficiency_ln>
-1.85419668546374

> <r_i_glide_gscore>
-9.65468336256865

> <r_i_glide_lipo>
-3.0123880475345

> <r_i_glide_hbond>
-0.284510956007882

> <r_i_glide_metal>
0

> <r_i_glide_rewards>
-0.334701184973304

> <r_i_glide_evdw>
-54.7499122619629

> <r_i_glide_ecoul>
-21.8031311035156

> <r_i_glide_erotb>
0.0175985619481915

> <r_i_glide_esite>
-0.0327164573756629

> <r_i_glide_emodel>
-114.024899509208

> <r_i_glide_energy>
-76.5530433654785

> <r_i_glide_einternal>
19.8668537139893

> <i_i_glide_confnum>
69

> <i_i_glide_posenum>
36

> <r_i_glide_eff_state_penalty>
0.1183

> <r_lp_tautomer_probability>
1

> <s_m_subgroup_title>
glide-dock_SP_top1262_2_pv

> <s_m_subgroupid>
glide-dock_SP_top1262_2_pv

> <b_m_subgroup_collapsed>
0

$$$$
OC1=C2C(C(C(O)=C(C3=CC=C(O)C=C3)O2)=O)=C(O)C=C1O[C@H]4[C@@H]([C@@H]([C@@H](O)...
                    3D
 Schrodinger Suite 2021-3.
  0  0  0     0  0            999 V3000
M  V30 BEGIN CTAB
M  V30 COUNTS 73 77 0 0 0
M  V30 BEGIN ATOM
M  V30 1 O  24.2157 44.1983 91.3777 0
M  V30 2 C  23.2982 43.4792 92.1843 0 CFG=2
M  V30 3 C  23.9054 43.2639 93.5884 0 CFG=1
M  V30 4 O  24.0904 44.5067 94.2480 0
M  V30 5 C  23.0490 42.3001 94.4275 0 CFG=2
M  V30 6 O  23.6829 41.9571 95.6435 0
M  V30 7 C  22.7029 41.0257 93.6363 0 CFG=1
M  V30 8 C  21.7733 40.0918 94.4535 0
M  V30 9 O  21.9350 38.7566 94.0435 0
M  V30 10 O  22.0830 41.4022 92.3959 0
M  V30 11 C  22.9214 42.1358 91.5352 0 CFG=1
M  V30 12 O  22.2029 42.4552 90.3759 0
M  V30 13 C  22.6422 41.9164 89.1244 0 CFG=2
M  V30 14 C  22.9266 43.0414 88.1145 0 CFG=1
M  V30 15 O  23.9635 43.8954 88.5724 0
M  V30 16 C  23.2687 42.4233 86.7330 0 CFG=1
M  V30 17 O  22.2639 41.4938 86.3017 0
M  V30 18 C  23.3780 43.4990 85.6431 0
M  V30 19 C  21.5708 40.9609 88.5580 0 CFG=1
M  V30 20 O  20.2875 41.5566 88.4435 0
M  V30 21 C  21.9963 40.4297 87.1862 0 CFG=2
M  V30 22 O  23.1148 39.6004 87.3707 0
M  V30 23 C  23.4145 38.6598 86.4066 0
M  V30 24 C  24.7411 38.5250 85.9829 0
M  V30 25 O  25.7237 39.3269 86.5203 0
M  V30 26 C  22.4421 37.8033 85.8790 0
M  V30 27 C  22.7610 36.8644 84.9064 0
M  V30 28 O  21.7450 36.0816 84.4246 0
M  V30 29 C  24.0818 36.7429 84.4435 0
M  V30 30 C  25.0593 37.5782 85.0025 0
M  V30 31 C  24.4709 35.7719 83.3733 0
M  V30 32 O  23.6338 35.0375 82.8441 0
M  V30 33 C  25.8958 35.8078 83.0200 0
M  V30 34 O  26.2105 34.9122 82.0436 0
M  V30 35 C  26.7598 36.6726 83.6099 0
M  V30 36 O  26.3836 37.5226 84.6069 0
M  V30 37 C  28.2302 36.7841 83.3633 0
M  V30 38 C  28.8936 37.9898 83.6436 0
M  V30 39 C  30.2599 38.1264 83.4084 0
M  V30 40 C  30.9771 37.0633 82.8689 0
M  V30 41 O  32.3119 37.2083 82.6119 0
M  V30 42 C  30.3427 35.8588 82.5862 0
M  V30 43 C  28.9824 35.7195 82.8436 0
M  V30 44 H  23.9408 44.1210 90.4518 0
M  V30 45 H  22.3869 44.0750 92.2645 0
M  V30 46 H  24.8981 42.8210 93.4842 0
M  V30 47 H  24.3715 45.1416 93.5816 0
M  V30 48 H  22.1192 42.8071 94.6874 0
M  V30 49 H  24.1775 41.1308 95.5438 0
M  V30 50 H  23.6333 40.4890 93.4298 0
M  V30 51 H  20.7289 40.4003 94.3890 0
M  V30 52 H  22.0272 40.0963 95.5145 0
M  V30 53 H  21.6095 38.1678 94.7347 0
M  V30 54 H  23.7911 41.4990 91.3495 0
M  V30 55 H  23.5671 41.3505 89.2593 0
M  V30 56 H  22.0341 43.6640 88.0169 0
M  V30 57 H  24.0030 44.6612 87.9910 0
M  V30 58 H  24.2207 41.8919 86.7921 0
M  V30 59 H  24.2355 44.1528 85.8038 0
M  V30 60 H  23.4827 43.0566 84.6518 0
M  V30 61 H  22.4840 44.1227 85.6429 0
M  V30 62 H  21.4607 40.1037 89.2237 0
M  V30 63 H  20.3536 42.3870 87.9585 0
M  V30 64 H  21.1678 39.9109 86.7036 0
M  V30 65 H  26.6005 39.1537 86.1648 0
M  V30 66 H  21.4230 37.8491 86.2289 0
M  V30 67 H  22.0832 35.4670 83.7595 0
M  V30 68 H  26.9855 35.1939 81.5356 0
M  V30 69 H  28.3538 38.8365 84.0424 0
M  V30 70 H  30.7594 39.0578 83.6284 0
M  V30 71 H  32.7011 36.4228 82.2214 0
M  V30 72 H  30.8940 35.0251 82.1744 0
M  V30 73 H  28.5414 34.7564 82.6445 0
M  V30 END ATOM
M  V30 BEGIN BOND
M  V30 1 1 1 2
M  V30 2 1 1 44
M  V30 3 1 2 3
M  V30 4 1 2 11
M  V30 5 1 2 45
M  V30 6 1 3 4
M  V30 7 1 3 5
M  V30 8 1 3 46
M  V30 9 1 4 47
M  V30 10 1 5 6
M  V30 11 1 5 7
M  V30 12 1 5 48
M  V30 13 1 6 49
M  V30 14 1 7 8
M  V30 15 1 7 10
M  V30 16 1 7 50
M  V30 17 1 8 9
M  V30 18 1 8 51
M  V30 19 1 8 52
M  V30 20 1 9 53
M  V30 21 1 10 11
M  V30 22 1 11 12
M  V30 23 1 11 54
M  V30 24 1 12 13
M  V30 25 1 13 14
M  V30 26 1 13 19
M  V30 27 1 13 55
M  V30 28 1 14 15
M  V30 29 1 14 16
M  V30 30 1 14 56
M  V30 31 1 15 57
M  V30 32 1 16 17
M  V30 33 1 16 18
M  V30 34 1 16 58
M  V30 35 1 17 21
M  V30 36 1 18 59
M  V30 37 1 18 60
M  V30 38 1 18 61
M  V30 39 1 19 20
M  V30 40 1 19 21
M  V30 41 1 19 62
M  V30 42 1 20 63
M  V30 43 1 21 22
M  V30 44 1 21 64
M  V30 45 1 22 23
M  V30 46 2 23 24
M  V30 47 1 23 26
M  V30 48 1 24 25
M  V30 49 1 24 30
M  V30 50 1 25 65
M  V30 51 2 26 27
M  V30 52 1 26 66
M  V30 53 1 27 28
M  V30 54 1 27 29
M  V30 55 1 28 67
M  V30 56 2 29 30
M  V30 57 1 29 31
M  V30 58 1 30 36
M  V30 59 2 31 32
M  V30 60 1 31 33
M  V30 61 1 33 34
M  V30 62 2 33 35
M  V30 63 1 34 68
M  V30 64 1 35 36
M  V30 65 1 35 37
M  V30 66 2 37 38
M  V30 67 1 37 43
M  V30 68 1 38 39
M  V30 69 1 38 69
M  V30 70 2 39 40
M  V30 71 1 39 70
M  V30 72 1 40 41
M  V30 73 1 40 42
M  V30 74 1 41 71
M  V30 75 2 42 43
M  V30 76 1 42 72
M  V30 77 1 43 73
M  V30 END BOND
M  V30 END CTAB
M  END
> <s_m_entry_id>
64

> <s_m_entry_name>
result.3472

> <s_m_Source_Path>
D:\OneDrive - zju.edu.cn\DOC\A-Finished\LCK_VS\Planet\LCK-8617

> <s_m_Source_File>
glide-dock_SP_top1262_2_pv.maegz

> <i_m_Source_File_Index>
64

> <PLANET_affinity>
7.339

> <i_lp_mmshare_version>
54117

> <i_f3d_flags>
0

> <s_epik_input>
W09IXVtDQEBIXTFbQ0BASF0oW09IXSlbQ0BIXShbT0hdKVtDQEBIXShbQ0gyXVtPSF0pT1tDQEhdMU9bQ0BASF0yW0NAQEhdKFtPSF0pW0NASF0oW0NIM10pT1tDQEhdKFtDQEBIXTJbT0hdKU9jKFtjSF1jM1tPSF0pYyhbT0hdKWMoYzM0KW9jKGMoYzQ9TylbT0hdKS1jNVtjSF1bY0hdYyhbT0hdKVtjSF1bY0hdNQ==

> <s_epik_cmdline>
J2VwaWtfcHl0aG9uJywgJy1waCcsICc3LjAnLCAnLXRuJywgJzgnLCAnLW1hJywgJzUwMCcsICctaW1hZScsICc8aW5maWxlLm1hZT4nLCAnLW9tYWUnLCAnPG91dGZpbGUubWFlPic=

> <r_epik_Ionization_Penalty>
  0.0048

> <r_epik_Ionization_Penalty_Charging>
  0.0000

> <r_epik_Ionization_Penalty_Neutral>
  0.0048

> <r_epik_State_Penalty>
  0.0000

> <r_epik_Charging_Adjusted_Penalty>
0

> <i_epik_Tot_Q>
0

> <i_epik_Tot_abs_Q>
0

> <s_epik_Chemistry_Notes>
This compound contains an acetal/aminal-like group ( X-CH(R)-Y where X, Y are N, S, or O) that may be acid/base labile, releasing an aldehyde.

> <s_lp_Force_Field>
S-OPLS

> <r_lp_Energy>
51.003

> <b_lp_Chiralities_Consistent>
1

> <s_lp_Variant>
OC1=C2C(C(C(O)=C(C3=CC=C(O)C=C3)O2)=O)=C(O)C=C1O[C@H]4[C@@H]([C@@H]([C@@H](O)...-1

> <s_i_glide_gridfile>
glide-grid_1

> <i_i_glide_lignum>
2184

> <i_i_glide_rotatable_bonds>
16

> <r_i_docking_score>
-9.44762845279882

> <r_i_glide_ligand_efficiency>
-0.219712289599972

> <r_i_glide_ligand_efficiency_sa>
-0.769739608262622

> <r_i_glide_ligand_efficiency_ln>
-1.98429560262719

> <r_i_glide_gscore>
-9.44762845279882

> <r_i_glide_lipo>
-3.62909896395257

> <r_i_glide_hbond>
0

> <r_i_glide_metal>
0

> <r_i_glide_rewards>
-0.5

> <r_i_glide_evdw>
-44.6747436523438

> <r_i_glide_ecoul>
-21.9331493377686

> <r_i_glide_erotb>
0.214038692791629

> <r_i_glide_esite>
-0.0088585983554007

> <r_i_glide_emodel>
-97.0710112811457

> <r_i_glide_energy>
-66.6078929901123

> <r_i_glide_einternal>
14.8066139221191

> <i_i_glide_confnum>
19

> <i_i_glide_posenum>
153

> <r_i_glide_eff_state_penalty>
0

> <r_lp_tautomer_probability>
1

> <s_m_subgroup_title>
glide-dock_SP_top1262_2_pv

> <s_m_subgroupid>
glide-dock_SP_top1262_2_pv

> <b_m_subgroup_collapsed>
0

$$$$
NC1CCN(C2=C3N=C(C=CC3=CC=C2)N4C=NC5=CC(OCCOC)=CC=C54)CC1
                    3D
 Schrodinger Suite 2021-3.
  0  0  0     0  0            999 V3000
M  V30 BEGIN CTAB
M  V30 COUNTS 59 63 0 0 0
M  V30 BEGIN ATOM
M  V30 1 N  22.4824 42.7568 85.3278 0 CHG=1
M  V30 2 C  23.9523 42.5537 85.7413 0
M  V30 3 C  24.2670 41.0539 85.9026 0
M  V30 4 C  25.7866 40.8096 86.0748 0
M  V30 5 N  26.5826 41.3426 84.9504 0
M  V30 6 C  26.3486 42.7996 84.8823 0
M  V30 7 C  24.8639 43.1482 84.6583 0
M  V30 8 C  27.8678 40.8133 84.7708 0
M  V30 9 C  28.9946 41.6278 84.9637 0
M  V30 10 C  30.2896 41.1441 84.8445 0
M  V30 11 C  30.5212 39.8190 84.5119 0
M  V30 12 C  29.4355 38.9492 84.2815 0
M  V30 13 C  28.0924 39.4325 84.4140 0
M  V30 14 C  29.6420 37.6011 83.9030 0
M  V30 15 C  28.5477 36.7847 83.6471 0
M  V30 16 C  27.2620 37.3115 83.7885 0
M  V30 17 N  27.0347 38.5999 84.1589 0
M  V30 18 N  26.1259 36.5148 83.5092 0
M  V30 19 C  26.0743 35.4818 82.5939 0
M  V30 20 N  24.8993 34.9377 82.4435 0
M  V30 21 C  24.8329 36.6064 84.0173 0
M  V30 22 C  24.0902 35.6518 83.2741 0
M  V30 23 C  24.2169 37.4084 84.9848 0
M  V30 24 C  22.8291 37.2966 85.1118 0
M  V30 25 C  22.0673 36.4226 84.3199 0
M  V30 26 C  22.7023 35.5566 83.4317 0
M  V30 27 O  20.6882 36.3681 84.3546 0
M  V30 28 C  19.9738 37.5585 84.7015 0
M  V30 29 C  18.6550 37.6158 83.9080 0
M  V30 30 O  17.8534 38.7567 84.2082 0
M  V30 31 C  17.2733 38.7596 85.5089 0
M  V30 32 H  22.2859 42.2612 84.4706 0
M  V30 33 H  21.8499 42.4348 86.0468 0
M  V30 34 H  24.1515 43.0662 86.6855 0
M  V30 35 H  23.9457 40.4939 85.0219 0
M  V30 36 H  23.6908 40.6181 86.7193 0
M  V30 37 H  25.9681 39.7454 86.2079 0
M  V30 38 H  26.1404 41.2777 86.9957 0
M  V30 39 H  26.7204 43.2746 85.7936 0
M  V30 40 H  26.9210 43.2163 84.0497 0
M  V30 41 H  24.7159 44.2259 84.5772 0
M  V30 42 H  24.5930 42.7570 83.6761 0
M  V30 43 H  28.8881 42.6684 85.2302 0
M  V30 44 H  31.1236 41.8156 84.9953 0
M  V30 45 H  31.5339 39.4544 84.4112 0
M  V30 46 H  30.6475 37.2181 83.8000 0
M  V30 47 H  28.7129 35.7597 83.3495 0
M  V30 48 H  26.9608 35.1993 82.0440 0
M  V30 49 H  24.7755 38.1073 85.5827 0
M  V30 50 H  22.3352 37.9268 85.8359 0
M  V30 51 H  22.1266 34.8558 82.8442 0
M  V30 52 H  20.5369 38.4647 84.4678 0
M  V30 53 H  19.7913 37.5537 85.7762 0
M  V30 54 H  18.0833 36.6992 84.0404 0
M  V30 55 H  18.8856 37.6683 82.8441 0
M  V30 56 H  16.5331 39.5562 85.5764 0
M  V30 57 H  18.0204 38.9451 86.2805 0
M  V30 58 H  16.7667 37.8203 85.7326 0
M  V30 59 H  22.2907 43.7407 85.1668 0
M  V30 END ATOM
M  V30 BEGIN BOND
M  V30 1 1 1 2
M  V30 2 1 1 32
M  V30 3 1 1 33
M  V30 4 1 1 59
M  V30 5 1 2 3
M  V30 6 1 2 7
M  V30 7 1 2 34
M  V30 8 1 3 4
M  V30 9 1 3 35
M  V30 10 1 3 36
M  V30 11 1 4 5
M  V30 12 1 4 37
M  V30 13 1 4 38
M  V30 14 1 5 6
M  V30 15 1 5 8
M  V30 16 1 6 7
M  V30 17 1 6 39
M  V30 18 1 6 40
M  V30 19 1 7 41
M  V30 20 1 7 42
M  V30 21 2 8 9
M  V30 22 1 8 13
M  V30 23 1 9 10
M  V30 24 1 9 43
M  V30 25 2 10 11
M  V30 26 1 10 44
M  V30 27 1 11 12
M  V30 28 1 11 45
M  V30 29 2 12 13
M  V30 30 1 12 14
M  V30 31 1 13 17
M  V30 32 2 14 15
M  V30 33 1 14 46
M  V30 34 1 15 16
M  V30 35 1 15 47
M  V30 36 2 16 17
M  V30 37 1 16 18
M  V30 38 1 18 19
M  V30 39 1 18 21
M  V30 40 2 19 20
M  V30 41 1 19 48
M  V30 42 1 20 22
M  V30 43 2 21 22
M  V30 44 1 21 23
M  V30 45 1 22 26
M  V30 46 2 23 24
M  V30 47 1 23 49
M  V30 48 1 24 25
M  V30 49 1 24 50
M  V30 50 2 25 26
M  V30 51 1 25 27
M  V30 52 1 26 51
M  V30 53 1 27 28
M  V30 54 1 28 29
M  V30 55 1 28 52
M  V30 56 1 28 53
M  V30 57 1 29 30
M  V30 58 1 29 54
M  V30 59 1 29 55
M  V30 60 1 30 31
M  V30 61 1 31 56
M  V30 62 1 31 57
M  V30 63 1 31 58
M  V30 END BOND
M  V30 END CTAB
M  END
> <s_m_entry_id>
68

> <s_m_entry_name>
result.3301

> <s_m_Source_Path>
D:\OneDrive - zju.edu.cn\DOC\A-Finished\LCK_VS\Planet\LCK-8617

> <s_m_Source_File>
glide-dock_SP_top1262_2_pv.maegz

> <i_m_Source_File_Index>
68

> <PLANET_affinity>
8.326

> <i_lp_mmshare_version>
54117

> <i_f3d_flags>
0

> <s_epik_input>
W05IMl1bQ0hdMVtDSDJdW0NIMl1OKFtDSDJdW0NIMl0xKWMoW2NIXVtjSF1bY0hdMiljKGMyMyluYyhbY0hdW2NIXTMpLW40W2NIXW5jKGM0NSlbY0hdYyhbY0hdW2NIXTUpT1tDSDJdW0NIMl1PW0NIM10=

> <s_epik_cmdline>
J2VwaWtfcHl0aG9uJywgJy1waCcsICc3LjAnLCAnLXRuJywgJzgnLCAnLW1hJywgJzUwMCcsICctaW1hZScsICc8aW5maWxlLm1hZT4nLCAnLW9tYWUnLCAnPG91dGZpbGUubWFlPic=

> <r_epik_Ionization_Penalty>
  0.0225

> <r_epik_Ionization_Penalty_Charging>
  0.0049

> <r_epik_Ionization_Penalty_Neutral>
  0.0176

> <r_epik_State_Penalty>
  0.0140

> <r_epik_Charging_Adjusted_Penalty>
0.0188271

> <i_epik_Tot_Q>
1

> <i_epik_Tot_abs_Q>
1

> <s_lp_Force_Field>
S-OPLS

> <r_lp_Energy>
68.141

> <b_lp_Chiralities_Consistent>
1

> <s_lp_Variant>
NC1CCN(C2=C3N=C(C=CC3=CC=C2)N4C=NC5=CC(OCCOC)=CC=C54)CC1-1

> <s_i_glide_gridfile>
glide-grid_1

> <i_i_glide_lignum>
940

> <i_i_glide_rotatable_bonds>
6

> <r_i_docking_score>
-9.36908315889944

> <r_i_glide_ligand_efficiency>
-0.302228488996756

> <r_i_glide_ligand_efficiency_sa>
-0.949414726849135

> <r_i_glide_ligand_efficiency_ln>
-2.11301538024789

> <r_i_glide_gscore>
-9.38308315889944

> <r_i_glide_lipo>
-2.5649483144014

> <r_i_glide_hbond>
-0.864

> <r_i_glide_metal>
0

> <r_i_glide_rewards>
-2.33382738764797

> <r_i_glide_evdw>
-39.9421615600586

> <r_i_glide_ecoul>
-14.2395696640015

> <r_i_glide_erotb>
0.564508453094966

> <r_i_glide_esite>
-0.0517723823418917

> <r_i_glide_emodel>
-82.6949689495142

> <r_i_glide_energy>
-54.1817312240601

> <r_i_glide_einternal>
12.6229391098022

> <i_i_glide_confnum>
357

> <i_i_glide_posenum>
77

> <r_i_glide_eff_state_penalty>
0.014

> <s_m_subgroup_title>
glide-dock_SP_top1262_2_pv

> <s_m_subgroupid>
glide-dock_SP_top1262_2_pv

> <b_m_subgroup_collapsed>
0

$$$$
NC1=C(C(NC2=CC=NC=C2)=O)C=C(C3=CC=CC(N4CCNCC4)=C3)C=N1
                    3D
 Schrodinger Suite 2021-3.
  0  0  0     0  0            999 V3000
M  V30 BEGIN CTAB
M  V30 COUNTS 51 54 0 0 0
M  V30 BEGIN ATOM
M  V30 1 C  20.9225 38.9893 86.2644 0
M  V30 2 C  19.6817 39.4813 86.6797 0
M  V30 3 N  18.5129 39.1563 86.0725 0
M  V30 4 C  18.5649 38.3303 84.9999 0
M  V30 5 C  19.7613 37.8095 84.5056 0
M  V30 6 C  20.9602 38.1323 85.1531 0
M  V30 7 N  22.1223 37.5682 84.6108 0
M  V30 8 C  23.3711 37.4450 85.1102 0
M  V30 9 O  23.7498 37.9122 86.1839 0
M  V30 10 C  24.3350 36.6935 84.2072 0
M  V30 11 C  23.9351 35.6708 83.3140 0
M  V30 12 N  22.6438 35.1567 83.2435 0
M  V30 13 C  25.7000 37.0420 84.2012 0
M  V30 14 C  26.6048 36.4373 83.3078 0
M  V30 15 C  26.0731 35.4776 82.4436 0
M  V30 16 N  24.7821 35.0930 82.4435 0
M  V30 17 C  28.0653 36.7656 83.2636 0
M  V30 18 C  29.0015 35.8072 82.8435 0
M  V30 19 C  30.3630 36.0900 82.8204 0
M  V30 20 C  30.8178 37.3386 83.2271 0
M  V30 21 C  29.9202 38.3282 83.6469 0
M  V30 22 C  28.5481 38.0271 83.6451 0
M  V30 23 N  30.3991 39.5610 84.0825 0
M  V30 24 C  29.6760 40.4452 85.0166 0
M  V30 25 C  30.5837 41.2189 86.0060 0
M  V30 26 N  31.6986 41.9566 85.2435 0 CHG=1
M  V30 27 C  32.4754 40.9488 84.3852 0
M  V30 28 C  31.4889 40.2831 83.4029 0
M  V30 29 H  21.8174 39.2875 86.7869 0
M  V30 30 H  19.6054 40.1621 87.5137 0
M  V30 31 H  17.6196 38.0870 84.5378 0
M  V30 32 H  19.7445 37.1586 83.6440 0
M  V30 33 H  21.9906 37.1287 83.7113 0
M  V30 34 H  22.0813 35.2290 84.0777 0
M  V30 35 H  22.4821 34.3858 82.6004 0
M  V30 36 H  26.0551 37.7967 84.8892 0
M  V30 37 H  26.6872 34.9733 81.7150 0
M  V30 38 H  28.6939 34.8152 82.5475 0
M  V30 39 H  31.0649 35.3326 82.4993 0
M  V30 40 H  31.8819 37.5191 83.2310 0
M  V30 41 H  27.8443 38.7853 83.9519 0
M  V30 42 H  29.0841 41.1541 84.4349 0
M  V30 43 H  28.9561 39.8635 85.5941 0
M  V30 44 H  31.0698 40.5560 86.7252 0
M  V30 45 H  30.0344 41.9877 86.5511 0
M  V30 46 H  32.3162 42.4427 85.8812 0
M  V30 47 H  32.9528 40.2386 85.0627 0
M  V30 48 H  33.2395 41.5306 83.8681 0
M  V30 49 H  32.0379 39.6280 82.7260 0
M  V30 50 H  31.0487 41.0367 82.7471 0
M  V30 51 H  31.2976 42.6560 84.6163 0
M  V30 END ATOM
M  V30 BEGIN BOND
M  V30 1 2 1 2
M  V30 2 1 1 6
M  V30 3 1 1 29
M  V30 4 1 2 3
M  V30 5 1 2 30
M  V30 6 2 3 4
M  V30 7 1 4 5
M  V30 8 1 4 31
M  V30 9 2 5 6
M  V30 10 1 5 32
M  V30 11 1 6 7
M  V30 12 1 7 8
M  V30 13 1 7 33
M  V30 14 2 8 9
M  V30 15 1 8 10
M  V30 16 2 10 11
M  V30 17 1 10 13
M  V30 18 1 11 12
M  V30 19 1 11 16
M  V30 20 1 12 34
M  V30 21 1 12 35
M  V30 22 2 13 14
M  V30 23 1 13 36
M  V30 24 1 14 15
M  V30 25 1 14 17
M  V30 26 2 15 16
M  V30 27 1 15 37
M  V30 28 2 17 18
M  V30 29 1 17 22
M  V30 30 1 18 19
M  V30 31 1 18 38
M  V30 32 2 19 20
M  V30 33 1 19 39
M  V30 34 1 20 21
M  V30 35 1 20 40
M  V30 36 2 21 22
M  V30 37 1 21 23
M  V30 38 1 22 41
M  V30 39 1 23 24
M  V30 40 1 23 28
M  V30 41 1 24 25
M  V30 42 1 24 42
M  V30 43 1 24 43
M  V30 44 1 25 26
M  V30 45 1 25 44
M  V30 46 1 25 45
M  V30 47 1 26 27
M  V30 48 1 26 46
M  V30 49 1 26 51
M  V30 50 1 27 28
M  V30 51 1 27 47
M  V30 52 1 27 48
M  V30 53 1 28 49
M  V30 54 1 28 50
M  V30 END BOND
M  V30 END CTAB
M  END
> <s_m_entry_id>
81

> <s_m_entry_name>
result.4599

> <s_m_Source_Path>
D:\OneDrive - zju.edu.cn\DOC\A-Finished\LCK_VS\Planet\LCK-8617

> <s_m_Source_File>
glide-dock_SP_top1262_2_pv.maegz

> <i_m_Source_File_Index>
81

> <PLANET_affinity>
7.318

> <i_lp_mmshare_version>
54117

> <i_f3d_flags>
0

> <s_epik_input>
W2NIXTFbY0hdbltjSF1bY0hdYzFbTkhdQyg9TyljMmMoW05IMl0pbltjSF1jKFtjSF0yKS1jM1tjSF1bY0hdW2NIXWMoW2NIXTMpTjRbQ0gyXVtDSDJdW05IXVtDSDJdW0NIMl00

> <s_epik_cmdline>
J2VwaWtfcHl0aG9uJywgJy1waCcsICc3LjAnLCAnLXRuJywgJzgnLCAnLW1hJywgJzUwMCcsICctaW1hZScsICc8aW5maWxlLm1hZT4nLCAnLW9tYWUnLCAnPG91dGZpbGUubWFlPic=

> <r_epik_Ionization_Penalty>
  0.0156

> <r_epik_Ionization_Penalty_Charging>
  0.0086

> <r_epik_Ionization_Penalty_Neutral>
  0.0070

> <r_epik_State_Penalty>
  0.0112

> <r_epik_Charging_Adjusted_Penalty>
0.0198044

> <i_epik_Tot_Q>
1

> <i_epik_Tot_abs_Q>
1

> <s_lp_Force_Field>
S-OPLS

> <r_lp_Energy>
62.7466

> <b_lp_Chiralities_Consistent>
1

> <s_lp_Variant>
NC1=C(C(NC2=CC=NC=C2)=O)C=C(C3=CC=CC(N4CCNCC4)=C3)C=N1-1

> <s_i_glide_gridfile>
glide-grid_1

> <i_i_glide_lignum>
2218

> <i_i_glide_rotatable_bonds>
5

> <r_i_docking_score>
-9.27402658498381

> <r_i_glide_ligand_efficiency>
-0.331215235177993

> <r_i_glide_ligand_efficiency_sa>
-1.00576452934156

> <r_i_glide_ligand_efficiency_ln>
-2.14071763306685

> <r_i_glide_gscore>
-9.28522658498381

> <r_i_glide_lipo>
-3.05695433335588

> <r_i_glide_hbond>
-0.788560827314818

> <r_i_glide_metal>
0

> <r_i_glide_rewards>
-2.64670221144062

> <r_i_glide_evdw>
-39.5882911682129

> <r_i_glide_ecoul>
-9.53666591644287

> <r_i_glide_erotb>
0.686254972730419

> <r_i_glide_esite>
-0.0693497397258264

> <r_i_glide_emodel>
-82.9195925146217

> <r_i_glide_energy>
-49.1249570846558

> <r_i_glide_einternal>
2.14521312713623

> <i_i_glide_confnum>
324

> <i_i_glide_posenum>
306

> <r_i_glide_eff_state_penalty>
0.0112

> <r_lp_tautomer_probability>
1

> <s_m_subgroup_title>
glide-dock_SP_top1262_2_pv

> <s_m_subgroupid>
glide-dock_SP_top1262_2_pv

> <b_m_subgroup_collapsed>
0

$$$$
O=C1NC2=CN=C(NC3=CC=C(N4CCC(O)CC4)C=C3)N=C2N(C)C5=CC=CC=C15
                    3D
 Schrodinger Suite 2021-3.
  0  0  0     0  0            999 V3000
M  V30 BEGIN CTAB
M  V30 COUNTS 55 59 0 0 0
M  V30 BEGIN ATOM
M  V30 1 C  23.4225 39.9365 85.8646 0
M  V30 2 C  22.3798 40.8559 85.8762 0
M  V30 3 C  21.0996 40.4451 85.5430 0
M  V30 4 C  20.8725 39.1185 85.1986 0
M  V30 5 C  21.9200 38.1770 85.1723 0
M  V30 6 C  21.4744 36.7620 84.8377 0
M  V30 7 O  20.3007 36.4124 84.9761 0
M  V30 8 N  22.3577 35.8772 84.3653 0
M  V30 9 C  23.2352 38.5778 85.5302 0
M  V30 10 N  24.3554 37.7176 85.5203 0
M  V30 11 C  25.4644 38.0382 86.4393 0
M  V30 12 C  24.6422 36.8030 84.4894 0
M  V30 13 C  23.6705 35.9566 83.9207 0
M  V30 14 N  25.9273 36.7978 84.0195 0
M  V30 15 C  26.2229 35.9933 82.9711 0
M  V30 16 N  25.3412 35.1734 82.3633 0
M  V30 17 C  24.0786 35.1695 82.8433 0
M  V30 18 N  27.5185 35.9393 82.4435 0
M  V30 19 C  28.7688 36.3565 82.9221 0
M  V30 20 C  28.9397 37.3858 83.8524 0
M  V30 21 C  30.2105 37.6778 84.3399 0
M  V30 22 C  31.3272 36.9509 83.9042 0
M  V30 23 C  31.1527 35.9670 82.9256 0
M  V30 24 C  29.8835 35.6736 82.4405 0
M  V30 25 N  32.5825 37.1337 84.4717 0
M  V30 26 C  33.8145 37.2196 83.6694 0
M  V30 27 C  34.9531 36.4101 84.3252 0
M  V30 28 C  35.2140 36.8419 85.7783 0
M  V30 29 O  36.1122 35.9566 86.4089 0
M  V30 30 C  33.9016 36.9512 86.5720 0
M  V30 31 C  32.7941 37.7097 85.8097 0
M  V30 32 H  24.4041 40.3128 86.1100 0
M  V30 33 H  22.5621 41.8884 86.1363 0
M  V30 34 H  20.2859 41.1553 85.5573 0
M  V30 35 H  19.8562 38.8400 84.9510 0
M  V30 36 H  21.9094 34.9963 84.1598 0
M  V30 37 H  26.0662 37.1569 86.6661 0
M  V30 38 H  26.1304 38.7840 86.0019 0
M  V30 39 H  25.0960 38.4149 87.3952 0
M  V30 40 H  23.3832 34.5076 82.3454 0
M  V30 41 H  27.5768 35.3902 81.5915 0
M  V30 42 H  28.1051 37.9573 84.2221 0
M  V30 43 H  30.3152 38.4594 85.0775 0
M  V30 44 H  31.9893 35.3825 82.5744 0
M  V30 45 H  29.7731 34.8847 81.7093 0
M  V30 46 H  33.6520 36.8404 82.6610 0
M  V30 47 H  34.0978 38.2678 83.5627 0
M  V30 48 H  34.7298 35.3440 84.2640 0
M  V30 49 H  35.8643 36.5430 83.7417 0
M  V30 50 H  35.7093 37.8148 85.7742 0
M  V30 51 H  35.7161 35.0677 86.4441 0
M  V30 52 H  34.0957 37.4711 87.5126 0
M  V30 53 H  33.5342 35.9671 86.8661 0
M  V30 54 H  33.0183 38.7741 85.7261 0
M  V30 55 H  31.8819 37.6182 86.3982 0
M  V30 END ATOM
M  V30 BEGIN BOND
M  V30 1 2 1 2
M  V30 2 1 1 9
M  V30 3 1 1 32
M  V30 4 1 2 3
M  V30 5 1 2 33
M  V30 6 2 3 4
M  V30 7 1 3 34
M  V30 8 1 4 5
M  V30 9 1 4 35
M  V30 10 1 5 6
M  V30 11 2 5 9
M  V30 12 2 6 7
M  V30 13 1 6 8
M  V30 14 1 8 13
M  V30 15 1 8 36
M  V30 16 1 9 10
M  V30 17 1 10 11
M  V30 18 1 10 12
M  V30 19 1 11 37
M  V30 20 1 11 38
M  V30 21 1 11 39
M  V30 22 2 12 13
M  V30 23 1 12 14
M  V30 24 1 13 17
M  V30 25 2 14 15
M  V30 26 1 15 16
M  V30 27 1 15 18
M  V30 28 2 16 17
M  V30 29 1 17 40
M  V30 30 1 18 19
M  V30 31 1 18 41
M  V30 32 2 19 20
M  V30 33 1 19 24
M  V30 34 1 20 21
M  V30 35 1 20 42
M  V30 36 2 21 22
M  V30 37 1 21 43
M  V30 38 1 22 23
M  V30 39 1 22 25
M  V30 40 2 23 24
M  V30 41 1 23 44
M  V30 42 1 24 45
M  V30 43 1 25 26
M  V30 44 1 25 31
M  V30 45 1 26 27
M  V30 46 1 26 46
M  V30 47 1 26 47
M  V30 48 1 27 28
M  V30 49 1 27 48
M  V30 50 1 27 49
M  V30 51 1 28 29
M  V30 52 1 28 30
M  V30 53 1 28 50
M  V30 54 1 29 51
M  V30 55 1 30 31
M  V30 56 1 30 52
M  V30 57 1 30 53
M  V30 58 1 31 54
M  V30 59 1 31 55
M  V30 END BOND
M  V30 END CTAB
M  END
> <s_m_entry_id>
84

> <s_m_entry_name>
result.6680

> <s_m_Source_Path>
D:\OneDrive - zju.edu.cn\DOC\A-Finished\LCK_VS\Planet\LCK-8617

> <s_m_Source_File>
glide-dock_SP_top1262_2_pv.maegz

> <i_m_Source_File_Index>
84

> <PLANET_affinity>
7.736

> <i_lp_mmshare_version>
54117

> <i_f3d_flags>
0

> <s_epik_input>
W2NIXTFbY0hdW2NIXVtjSF1jKGMxMilOKFtDSDNdKWMzYyhbTkhdQzI9TylbY0hdbmMobjMpW05IXWM0W2NIXVtjSF1jKFtjSF1bY0hdNClONVtDSDJdW0NIMl1bQ0hdKFtPSF0pW0NIMl1bQ0gyXTU=

> <s_epik_cmdline>
J2VwaWtfcHl0aG9uJywgJy1waCcsICc3LjAnLCAnLXRuJywgJzgnLCAnLW1hJywgJzUwMCcsICctaW1hZScsICc8aW5maWxlLm1hZT4nLCAnLW9tYWUnLCAnPG91dGZpbGUubWFlPic=

> <r_epik_Ionization_Penalty>
  0.1761

> <r_epik_Ionization_Penalty_Charging>
  0.0000

> <r_epik_Ionization_Penalty_Neutral>
  0.1761

> <r_epik_State_Penalty>
  0.1647

> <r_epik_Charging_Adjusted_Penalty>
0.164719

> <i_epik_Tot_Q>
0

> <i_epik_Tot_abs_Q>
0

> <s_lp_Force_Field>
S-OPLS

> <r_lp_Energy>
77.5525

> <b_lp_Chiralities_Consistent>
1

> <s_lp_Variant>
O=C1NC2=CN=C(NC3=CC=C(N4CCC(O)CC4)C=C3)N=C2N(C)C5=CC=CC=C15-1

> <s_i_glide_gridfile>
glide-grid_1

> <i_i_glide_lignum>
1593

> <i_i_glide_rotatable_bonds>
4

> <r_i_docking_score>
-9.25904618177196

> <r_i_glide_ligand_efficiency>
-0.298678909089418

> <r_i_glide_ligand_efficiency_sa>
-0.93826414521687

> <r_i_glide_ligand_efficiency_ln>
-2.08819866967728

> <r_i_glide_gscore>
-9.42374618177196

> <r_i_glide_lipo>
-2.35677753507626

> <r_i_glide_hbond>
-1.26282992622966

> <r_i_glide_metal>
0

> <r_i_glide_rewards>
-2.33025516553965

> <r_i_glide_evdw>
-39.381893157959

> <r_i_glide_ecoul>
-11.4710836410522

> <r_i_glide_erotb>
0.239191583913777

> <r_i_glide_esite>
-0.0233179347843746

> <r_i_glide_emodel>
-80.1263662615295

> <r_i_glide_energy>
-50.8529767990112

> <r_i_glide_einternal>
1.2530335187912

> <i_i_glide_confnum>
33

> <i_i_glide_posenum>
122

> <r_i_glide_eff_state_penalty>
0.1647

> <r_lp_tautomer_probability>
1

> <s_m_subgroup_title>
glide-dock_SP_top1262_2_pv

> <s_m_subgroupid>
glide-dock_SP_top1262_2_pv

> <b_m_subgroup_collapsed>
0

$$$$
NC(SCCCN1C=C(C2=C(C3=CN(C)C4=C3C=CC=C4)C(NC2=O)=O)C5=C1C=CC=C5)=N.CS(=O)(O)=O
                    3D
 Schrodinger Suite 2021-3.
  0  0  0     0  0            999 V3000
M  V30 BEGIN CTAB
M  V30 COUNTS 57 61 0 0 0
M  V30 BEGIN ATOM
M  V30 1 N  23.4626 47.4273 86.3962 0
M  V30 2 C  22.4255 46.6923 86.7748 0
M  V30 3 N  21.2831 47.2356 87.1527 0 CHG=1
M  V30 4 S  22.5212 44.9558 86.8436 0
M  V30 5 C  23.7155 44.4391 85.5626 0
M  V30 6 C  23.3998 43.0376 85.0047 0
M  V30 7 C  23.7838 41.9262 86.0033 0
M  V30 8 N  23.0806 40.6735 85.7624 0
M  V30 9 C  21.8176 40.3341 86.2126 0
M  V30 10 C  21.6031 38.9534 85.8757 0
M  V30 11 C  20.8632 41.0990 86.8981 0
M  V30 12 C  19.6681 40.4703 87.2362 0
M  V30 13 C  19.4470 39.1242 86.9736 0
M  V30 14 C  20.4059 38.3534 86.3178 0
M  V30 15 C  23.5702 39.6353 85.0166 0
M  V30 16 C  22.7586 38.5183 85.1093 0
M  V30 17 C  23.0999 37.2351 84.4595 0
M  V30 18 C  24.3123 36.6891 84.2017 0
M  V30 19 C  24.0889 35.5390 83.3618 0
M  V30 20 O  24.8865 34.7590 82.8436 0
M  V30 21 N  22.7641 35.4193 83.2627 0
M  V30 22 C  22.0907 36.3454 83.9460 0
M  V30 23 O  20.8665 36.3899 84.0434 0
M  V30 24 C  25.6632 37.1765 84.5809 0
M  V30 25 C  25.8957 37.9239 85.7248 0
M  V30 26 N  27.1944 38.3591 85.7937 0
M  V30 27 C  27.7205 39.2571 86.8112 0
M  V30 28 C  26.9733 37.0253 83.9661 0
M  V30 29 C  27.9053 37.7799 84.7608 0
M  V30 30 C  27.4845 36.3459 82.8433 0
M  V30 31 C  28.8536 36.3565 82.5843 0
M  V30 32 C  29.7227 37.1040 83.3661 0
M  V30 33 C  29.2720 37.8483 84.4531 0
M  V30 34 H  23.3875 48.4327 86.3667 0
M  V30 35 H  24.3215 46.9708 86.1311 0
M  V30 36 H  20.4867 46.6042 87.2435 0
M  V30 37 H  23.6825 45.1613 84.7484 0
M  V30 38 H  24.7302 44.4827 85.9612 0
M  V30 39 H  22.3355 42.9876 84.7645 0
M  V30 40 H  23.9236 42.8838 84.0598 0
M  V30 41 H  24.8595 41.7473 85.9838 0
M  V30 42 H  23.5521 42.2230 87.0267 0
M  V30 43 H  21.0193 42.1439 87.1248 0
M  V30 44 H  18.8845 41.0501 87.7045 0
M  V30 45 H  18.5045 38.6781 87.2652 0
M  V30 46 H  20.2017 37.3105 86.1306 0
M  V30 47 H  24.5191 39.7562 84.5139 0
M  V30 48 H  22.3176 34.6690 82.7525 0
M  V30 49 H  25.2017 38.2318 86.4927 0
M  V30 50 H  28.1650 40.1266 86.3253 0
M  V30 51 H  26.9216 39.5973 87.4691 0
M  V30 52 H  28.4842 38.7567 87.4010 0
M  V30 53 H  26.8473 35.7941 82.1758 0
M  V30 54 H  29.2474 35.8077 81.7396 0
M  V30 55 H  30.7742 37.1132 83.1141 0
M  V30 56 H  29.9662 38.4211 85.0528 0
M  V30 57 H  21.1233 48.2311 87.1479 0
M  V30 END ATOM
M  V30 BEGIN BOND
M  V30 1 1 1 2
M  V30 2 1 1 34
M  V30 3 1 1 35
M  V30 4 2 2 3
M  V30 5 1 2 4
M  V30 6 1 3 36
M  V30 7 1 3 57
M  V30 8 1 4 5
M  V30 9 1 5 6
M  V30 10 1 5 37
M  V30 11 1 5 38
M  V30 12 1 6 7
M  V30 13 1 6 39
M  V30 14 1 6 40
M  V30 15 1 7 8
M  V30 16 1 7 41
M  V30 17 1 7 42
M  V30 18 1 8 9
M  V30 19 1 8 15
M  V30 20 2 9 10
M  V30 21 1 9 11
M  V30 22 1 10 16
M  V30 23 1 10 14
M  V30 24 2 11 12
M  V30 25 1 11 43
M  V30 26 1 12 13
M  V30 27 1 12 44
M  V30 28 2 13 14
M  V30 29 1 13 45
M  V30 30 1 14 46
M  V30 31 2 15 16
M  V30 32 1 15 47
M  V30 33 1 16 17
M  V30 34 2 17 18
M  V30 35 1 17 22
M  V30 36 1 18 19
M  V30 37 1 18 24
M  V30 38 2 19 20
M  V30 39 1 19 21
M  V30 40 1 21 22
M  V30 41 1 21 48
M  V30 42 2 22 23
M  V30 43 2 24 25
M  V30 44 1 24 28
M  V30 45 1 25 26
M  V30 46 1 25 49
M  V30 47 1 26 27
M  V30 48 1 26 29
M  V30 49 1 27 50
M  V30 50 1 27 51
M  V30 51 1 27 52
M  V30 52 2 28 29
M  V30 53 1 28 30
M  V30 54 1 29 33
M  V30 55 2 30 31
M  V30 56 1 30 53
M  V30 57 1 31 32
M  V30 58 1 31 54
M  V30 59 2 32 33
M  V30 60 1 32 55
M  V30 61 1 33 56
M  V30 END BOND
M  V30 END CTAB
M  END
> <s_m_entry_id>
87

> <s_m_entry_name>
result.8184

> <s_m_Source_Path>
D:\OneDrive - zju.edu.cn\DOC\A-Finished\LCK_VS\Planet\LCK-8617

> <s_m_Source_File>
glide-dock_SP_top1262_2_pv.maegz

> <i_m_Source_File_Index>
87

> <PLANET_affinity>
7.423

> <i_lp_mmshare_version>
54117

> <i_f3d_flags>
0

> <s_epik_input>
W0hdL049QyhcW05IMl0pU1tDSDJdW0NIMl1bQ0gyXW4xW2NIXWMoYyhjMTIpW2NIXVtjSF1bY0hdW2NIXTIpQzM9QyhDKD1PKVtOSF1DMz1PKWM0W2NIXW4oW0NIM10pYyhjNDUpW2NIXVtjSF1bY0hdW2NIXTU=

> <s_epik_cmdline>
J2VwaWtfcHl0aG9uJywgJy1waCcsICc3LjAnLCAnLXRuJywgJzgnLCAnLW1hJywgJzUwMCcsICctaW1hZScsICc8aW5maWxlLm1hZT4nLCAnLW9tYWUnLCAnPG91dGZpbGUubWFlPic=

> <r_epik_Ionization_Penalty>
  0.0490

> <r_epik_Ionization_Penalty_Charging>
  0.0127

> <r_epik_Ionization_Penalty_Neutral>
  0.0363

> <r_epik_State_Penalty>
  0.0499

> <r_epik_Charging_Adjusted_Penalty>
0.0625825

> <i_epik_Tot_Q>
1

> <i_epik_Tot_abs_Q>
1

> <s_epik_Chemistry_Notes>
This compound has an imine and may undergo hydrolysis.

> <s_lp_Force_Field>
S-OPLS

> <r_lp_Energy>
45.1908

> <b_lp_Chiralities_Consistent>
1

> <s_lp_Variant>
NC(SCCCN1C=C(C2=C(C3=CN(C)C4=C3C=CC=C4)C(NC2=O)=O)C5=C1C=CC=C5)=N.CS(=O)(O)=O-1

> <s_i_glide_gridfile>
glide-grid_1

> <i_i_glide_lignum>
2053

> <i_i_glide_rotatable_bonds>
7

> <r_i_docking_score>
-9.23314736274108

> <r_i_glide_ligand_efficiency>
-0.279792344325487

> <r_i_glide_ligand_efficiency_sa>
-0.89744354864804

> <r_i_glide_ligand_efficiency_ln>
-2.05340416679513

> <r_i_glide_gscore>
-9.28304736274108

> <r_i_glide_lipo>
-2.08181651417352

> <r_i_glide_hbond>
-0.916328012272577

> <r_i_glide_metal>
0

> <r_i_glide_rewards>
-2.14945831190992

> <r_i_glide_evdw>
-42.7846794128418

> <r_i_glide_ecoul>
-15.0237245559692

> <r_i_glide_erotb>
0.468708081586767

> <r_i_glide_esite>
-0.211359951934358

> <r_i_glide_emodel>
-90.9755846473116

> <r_i_glide_energy>
-57.808403968811

> <r_i_glide_einternal>
12.1131057739258

> <i_i_glide_confnum>
38

> <i_i_glide_posenum>
143

> <r_i_glide_eff_state_penalty>
0.0499

> <s_m_subgroup_title>
glide-dock_SP_top1262_2_pv

> <s_m_subgroupid>
glide-dock_SP_top1262_2_pv

> <b_m_subgroup_collapsed>
0

$$$$
NC1=NC=C(C2=CN(C3CCNCC3)N=C2)C=C1O[C@H](C4=C(Cl)C=CC(F)=C4Cl)C
                    3D
 Schrodinger Suite 2021-3.
  0  0  0     0  0            999 V3000
M  V30 BEGIN CTAB
M  V30 COUNTS 53 56 0 0 0
M  V30 BEGIN ATOM
M  V30 1 C  31.7916 35.1575 82.7373 0
M  V30 2 C  33.2025 34.8865 82.1817 0
M  V30 3 N  33.3691 35.6727 80.8646 0 CHG=1
M  V30 4 C  33.1756 37.1932 81.0551 0
M  V30 5 C  31.7722 37.4498 81.6438 0
M  V30 6 C  31.5127 36.6633 82.9464 0
M  V30 7 N  30.1024 36.8669 83.3254 0
M  V30 8 N  29.8051 37.8565 84.1775 0
M  V30 9 C  28.5000 37.8004 84.3175 0
M  V30 10 C  28.9673 36.2393 82.8653 0
M  V30 11 C  27.8938 36.7914 83.5503 0
M  V30 12 C  26.4562 36.3951 83.4915 0
M  V30 13 C  26.0621 35.2530 82.7807 0
M  V30 14 N  24.7736 34.8444 82.6846 0
M  V30 15 C  23.8239 35.5752 83.3176 0
M  V30 16 N  22.5041 35.1582 83.1773 0
M  V30 17 C  25.4565 37.1243 84.1483 0
M  V30 18 C  24.1235 36.7128 84.0749 0
M  V30 19 O  23.1175 37.4525 84.6576 0
M  V30 20 C  22.9365 37.2952 86.0649 0 CFG=1
M  V30 21 C  23.6219 38.4558 86.8123 0
M  V30 22 C  21.4325 37.2186 86.3991 0
M  V30 23 C  20.9319 36.1770 87.2116 0
M  V30 24 Cl 21.9130 34.8574 87.7556 0
M  V30 25 C  19.5967 36.1680 87.6109 0
M  V30 26 C  18.7262 37.1629 87.1823 0
M  V30 27 C  19.1840 38.1658 86.3367 0
M  V30 28 F  18.3123 39.1040 85.8987 0
M  V30 29 C  20.5253 38.2051 85.9441 0
M  V30 30 Cl 21.0100 39.4964 84.8908 0
M  V30 31 H  31.7321 34.6500 83.7034 0
M  V30 32 H  31.0400 34.6760 82.1113 0
M  V30 33 H  33.9929 35.2202 82.8613 0
M  V30 34 H  33.3595 33.8327 81.9388 0
M  V30 35 H  34.2801 35.4861 80.4697 0
M  V30 36 H  33.9758 37.5301 81.7205 0
M  V30 37 H  33.3082 37.6540 80.0739 0
M  V30 38 H  30.9917 37.2609 80.9040 0
M  V30 39 H  31.7179 38.5191 81.8634 0
M  V30 40 H  32.0982 37.0484 83.7870 0
M  V30 41 H  27.9895 38.4778 84.9869 0
M  V30 42 H  29.0149 35.4497 82.1311 0
M  V30 43 H  26.7869 34.6409 82.2619 0
M  V30 44 H  21.7774 35.7469 83.5585 0
M  V30 45 H  22.2852 34.3461 82.6009 0
M  V30 46 H  25.7040 38.0208 84.6936 0
M  V30 47 H  23.4333 36.3815 86.3892 0
M  V30 48 H  23.4460 38.3855 87.8859 0
M  V30 49 H  24.7009 38.4448 86.6666 0
M  V30 50 H  23.2608 39.4307 86.4854 0
M  V30 51 H  19.2248 35.3742 88.2433 0
M  V30 52 H  17.6907 37.1515 87.4893 0
M  V30 53 H  32.6908 35.3251 80.1906 0
M  V30 END ATOM
M  V30 BEGIN BOND
M  V30 1 1 1 2
M  V30 2 1 1 6
M  V30 3 1 1 31
M  V30 4 1 1 32
M  V30 5 1 2 3
M  V30 6 1 2 33
M  V30 7 1 2 34
M  V30 8 1 3 4
M  V30 9 1 3 35
M  V30 10 1 3 53
M  V30 11 1 4 5
M  V30 12 1 4 36
M  V30 13 1 4 37
M  V30 14 1 5 6
M  V30 15 1 5 38
M  V30 16 1 5 39
M  V30 17 1 6 7
M  V30 18 1 6 40
M  V30 19 1 7 8
M  V30 20 1 7 10
M  V30 21 2 8 9
M  V30 22 1 9 11
M  V30 23 1 9 41
M  V30 24 2 10 11
M  V30 25 1 10 42
M  V30 26 1 11 12
M  V30 27 2 12 13
M  V30 28 1 12 17
M  V30 29 1 13 14
M  V30 30 1 13 43
M  V30 31 2 14 15
M  V30 32 1 15 16
M  V30 33 1 15 18
M  V30 34 1 16 44
M  V30 35 1 16 45
M  V30 36 2 17 18
M  V30 37 1 17 46
M  V30 38 1 18 19
M  V30 39 1 19 20
M  V30 40 1 20 21
M  V30 41 1 20 22
M  V30 42 1 20 47
M  V30 43 1 21 48
M  V30 44 1 21 49
M  V30 45 1 21 50
M  V30 46 2 22 23
M  V30 47 1 22 29
M  V30 48 1 23 24
M  V30 49 1 23 25
M  V30 50 2 25 26
M  V30 51 1 25 51
M  V30 52 1 26 27
M  V30 53 1 26 52
M  V30 54 1 27 28
M  V30 55 2 27 29
M  V30 56 1 29 30
M  V30 END BOND
M  V30 END CTAB
M  END
> <s_m_entry_id>
88

> <s_m_entry_name>
result.987

> <s_m_Source_Path>
D:\OneDrive - zju.edu.cn\DOC\A-Finished\LCK_VS\Planet\LCK-8617

> <s_m_Source_File>
glide-dock_SP_top1262_2_pv.maegz

> <i_m_Source_File_Index>
88

> <PLANET_affinity>
8.254

> <i_lp_mmshare_version>
54117

> <i_f3d_flags>
0

> <s_epik_input>
W0NIMl0xW0NIMl1bTkhdW0NIMl1bQ0gyXVtDSF0xbjJuW2NIXWMoW2NIXTIpLWMzW2NIXW5jKFtOSDJdKWMoW2NIXTMpT1tDQEBIXShbQ0gzXSljNGMoQ2wpW2NIXVtjSF1jKEYpYzRDbA==

> <s_epik_cmdline>
J2VwaWtfcHl0aG9uJywgJy1waCcsICc3LjAnLCAnLXRuJywgJzgnLCAnLW1hJywgJzUwMCcsICctaW1hZScsICc8aW5maWxlLm1hZT4nLCAnLW9tYWUnLCAnPG91dGZpbGUubWFlPic=

> <r_epik_Ionization_Penalty>
  0.3436

> <r_epik_Ionization_Penalty_Charging>
  0.0019

> <r_epik_Ionization_Penalty_Neutral>
  0.3417

> <r_epik_State_Penalty>
  0.3362

> <r_epik_Charging_Adjusted_Penalty>
0.338089

> <i_epik_Tot_Q>
1

> <i_epik_Tot_abs_Q>
1

> <s_lp_Force_Field>
S-OPLS

> <r_lp_Energy>
32.4609

> <b_lp_Chiralities_Consistent>
1

> <s_lp_Variant>
NC1=NC=C(C2=CN(C3CCNCC3)N=C2)C=C1O[C@H](C4=C(Cl)C=CC(F)=C4Cl)C-1

> <s_i_glide_gridfile>
glide-grid_1

> <i_i_glide_lignum>
1020

> <i_i_glide_rotatable_bonds>
5

> <r_i_docking_score>
-9.23268214399388

> <r_i_glide_ligand_efficiency>
-0.307756071466462

> <r_i_glide_ligand_efficiency_sa>
-0.956269668081097

> <r_i_glide_ligand_efficiency_ln>
-2.09776598124464

> <r_i_glide_gscore>
-9.56888214399387

> <r_i_glide_lipo>
-4.04114634004435

> <r_i_glide_hbond>
-0.542784738454464

> <r_i_glide_metal>
0

> <r_i_glide_rewards>
-1.47887558949008

> <r_i_glide_evdw>
-44.3742485046387

> <r_i_glide_ecoul>
-10.5757179260254

> <r_i_glide_erotb>
0.344590866591994

> <r_i_glide_esite>
-0.0455962284612284

> <r_i_glide_emodel>
-87.5732773529713

> <r_i_glide_energy>
-54.9499664306641

> <r_i_glide_einternal>
8.45615100860596

> <i_i_glide_confnum>
25

> <i_i_glide_posenum>
389

> <r_i_glide_eff_state_penalty>
0.3362

> <r_lp_tautomer_probability>
0.999999

> <s_m_subgroup_title>
glide-dock_SP_top1262_2_pv

> <s_m_subgroupid>
glide-dock_SP_top1262_2_pv

> <b_m_subgroup_collapsed>
0

$$$$
O[C@H]([C@@H](O)[C@@H]1O)[C@@H](O[C@@H]1CO)OC2=CC=C(COC(C(CC(OCC3=CC=C(O[C@@H...
                    3D
 Schrodinger Suite 2021-3.
  0  0  0     0  0            999 V3000
M  V30 BEGIN CTAB
M  V30 COUNTS 126 131 0 0 0
M  V30 BEGIN ATOM
M  V30 1 O  20.4827 43.1567 90.4901 0
M  V30 2 C  21.8848 43.3720 90.5354 0
M  V30 3 C  22.6370 42.2267 91.2534 0 CFG=1
M  V30 4 O  24.0307 42.4345 91.0274 0
M  V30 5 C  22.4282 42.1631 92.7862 0 CFG=1
M  V30 6 O  21.0597 41.9567 93.1085 0
M  V30 7 C  23.3349 41.0763 93.4230 0 CFG=2
M  V30 8 O  23.2830 41.1787 94.8434 0
M  V30 9 C  24.7959 41.1212 92.8783 0 CFG=1
M  V30 10 O  25.5240 39.9571 93.2433 0
M  V30 11 C  24.8161 41.3131 91.3473 0 CFG=2
M  V30 12 O  26.1510 41.5313 90.9605 0
M  V30 13 C  26.4635 41.7831 89.6321 0
M  V30 14 C  27.8034 42.0388 89.3357 0
M  V30 15 C  28.1962 42.3623 88.0380 0
M  V30 16 C  25.5212 41.8220 88.5924 0
M  V30 17 C  25.9075 42.1514 87.2971 0
M  V30 18 C  27.2441 42.4354 87.0200 0
M  V30 19 C  27.6448 42.8780 85.6168 0
M  V30 20 O  28.3512 41.8631 84.9081 0
M  V30 21 C  27.7188 40.8081 84.3452 0
M  V30 22 O  26.5112 40.5731 84.4179 0
M  V30 23 C  28.6995 39.9017 83.5745 0
M  V30 24 C  28.6300 38.3533 83.7998 0
M  V30 25 O  28.6703 38.1292 85.1988 0
M  V30 26 C  27.3299 37.6893 83.2480 0
M  V30 27 O  26.4830 38.3110 82.6039 0
M  V30 28 O  27.2759 36.3565 83.5013 0
M  V30 29 C  26.2696 35.5156 82.9376 0
M  V30 30 C  24.8753 35.7524 83.5101 0
M  V30 31 C  23.7705 35.3442 82.7615 0
M  V30 32 C  22.4838 35.5570 83.2447 0
M  V30 33 C  24.6877 36.3585 84.7565 0
M  V30 34 C  23.4021 36.5781 85.2357 0
M  V30 35 C  22.2982 36.1887 84.4718 0
M  V30 36 O  21.0131 36.3568 84.9232 0
M  V30 37 C  20.5983 37.6533 85.2214 0 CFG=2
M  V30 38 O  21.1033 38.0397 86.4723 0
M  V30 39 C  20.7790 39.3879 86.8118 0 CFG=2
M  V30 40 C  21.6799 39.8251 87.9903 0
M  V30 41 O  23.0419 39.8283 87.6039 0
M  V30 42 C  19.2553 39.4395 87.0948 0 CFG=1
M  V30 43 O  18.8830 40.7566 87.4745 0
M  V30 44 C  18.4915 38.9354 85.8427 0 CFG=2
M  V30 45 O  17.0978 38.7566 86.0423 0
M  V30 46 C  19.0686 37.6075 85.2983 0 CFG=1
M  V30 47 O  18.4855 37.3062 84.0435 0
M  V30 48 C  29.8539 37.5721 83.2008 0
M  V30 49 C  31.2827 38.0272 83.5393 0
M  V30 50 O  31.6694 39.1759 83.3279 0
M  V30 51 O  32.0432 37.0203 84.0257 0
M  V30 52 C  33.4303 37.2076 84.3093 0
M  V30 53 C  33.6607 37.4519 85.7951 0
M  V30 54 C  33.2662 38.6506 86.3889 0
M  V30 55 C  33.4881 38.8557 87.7475 0
M  V30 56 C  34.0920 37.8585 88.5310 0
M  V30 57 C  34.5100 36.6797 87.9186 0
M  V30 58 C  34.2962 36.4754 86.5595 0
M  V30 59 O  34.3162 37.9637 89.8936 0
M  V30 60 C  33.5340 38.8417 90.6570 0 CFG=1
M  V30 61 C  33.7875 38.5314 92.1408 0 CFG=2
M  V30 62 O  33.4774 37.1786 92.4440 0
M  V30 63 C  32.9574 39.5112 93.0132 0 CFG=1
M  V30 64 O  33.2831 39.4240 94.3898 0
M  V30 65 C  33.0819 40.9812 92.5514 0 CFG=2
M  V30 66 O  32.0877 41.7731 93.1794 0
M  V30 67 C  33.0098 41.1135 91.0091 0 CFG=2
M  V30 68 O  33.9118 40.1727 90.4193 0
M  V30 69 C  33.3942 42.5129 90.4835 0
M  V30 70 O  32.5102 43.5144 90.9585 0
M  V30 71 H  20.1009 43.7680 89.8485 0
M  V30 72 H  22.0920 44.3337 91.0061 0
M  V30 73 H  22.2382 43.4487 89.5055 0
M  V30 74 H  22.3258 41.2861 90.7913 0
M  V30 75 H  22.7026 43.1338 93.2042 0
M  V30 76 H  20.5579 42.6877 92.7323 0
M  V30 77 H  22.8917 40.1105 93.1692 0
M  V30 78 H  23.9097 40.5641 95.2506 0
M  V30 79 H  25.3163 41.9781 93.3127 0
M  V30 80 H  25.4201 39.8025 94.1883 0
M  V30 81 H  24.4296 40.4420 90.8091 0
M  V30 82 H  28.5405 42.0079 90.1242 0
M  V30 83 H  29.2343 42.5773 87.8283 0
M  V30 84 H  24.4770 41.6294 88.7794 0
M  V30 85 H  25.1637 42.2022 86.5130 0
M  V30 86 H  28.2952 43.7475 85.7049 0
M  V30 87 H  26.7719 43.2096 85.0525 0
M  V30 88 H  29.6880 40.2640 83.8442 0
M  V30 89 H  28.5866 40.1161 82.5151 0
M  V30 90 H  28.7057 37.1827 85.3534 0
M  V30 91 H  26.2485 35.6537 81.8548 0
M  V30 92 H  26.5439 34.4776 83.1212 0
M  V30 93 H  23.8934 34.8642 81.8024 0
M  V30 94 H  21.6339 35.2252 82.6653 0
M  V30 95 H  25.5300 36.6686 85.3591 0
M  V30 96 H  23.2720 37.0393 86.2026 0
M  V30 97 H  20.9626 38.3569 84.4654 0
M  V30 98 H  21.0059 40.0561 85.9761 0
M  V30 99 H  21.4187 40.8305 88.3263 0
M  V30 100 H  21.5756 39.1567 88.8426 0
M  V30 101 H  23.1544 40.4284 86.8609 0
M  V30 102 H  19.0236 38.7876 87.9405 0
M  V30 103 H  17.9107 40.8381 87.5529 0
M  V30 104 H  18.5981 39.6863 85.0588 0
M  V30 105 H  16.7659 39.4438 86.6422 0
M  V30 106 H  18.8089 36.7981 85.9872 0
M  V30 107 H  17.5585 37.5550 84.1074 0
M  V30 108 H  29.7976 37.5564 82.1147 0
M  V30 109 H  29.7847 36.5196 83.4821 0
M  V30 110 H  33.8704 38.0196 83.7275 0
M  V30 111 H  33.9567 36.3011 84.0105 0
M  V30 112 H  32.7806 39.4199 85.8051 0
M  V30 113 H  33.1555 39.7846 88.1803 0
M  V30 114 H  34.9844 35.9035 88.5029 0
M  V30 115 H  34.6269 35.5551 86.1029 0
M  V30 116 H  32.4832 38.7130 90.3906 0
M  V30 117 H  34.8529 38.6770 92.3307 0
M  V30 118 H  33.6535 36.6464 91.6567 0
M  V30 119 H  31.9133 39.2029 92.9308 0
M  V30 120 H  32.9405 40.2207 94.8072 0
M  V30 121 H  34.0513 41.3693 92.8712 0
M  V30 122 H  32.1024 42.6435 92.7618 0
M  V30 123 H  31.9978 40.9009 90.6600 0
M  V30 124 H  33.3641 42.5160 89.3929 0
M  V30 125 H  34.4141 42.7671 90.7710 0
M  V30 126 H  32.7144 44.3419 90.5125 0
M  V30 END ATOM
M  V30 BEGIN BOND
M  V30 1 1 1 2
M  V30 2 1 1 71
M  V30 3 1 2 3
M  V30 4 1 2 72
M  V30 5 1 2 73
M  V30 6 1 3 4
M  V30 7 1 3 5
M  V30 8 1 3 74
M  V30 9 1 4 11
M  V30 10 1 5 6
M  V30 11 1 5 7
M  V30 12 1 5 75
M  V30 13 1 6 76
M  V30 14 1 7 8
M  V30 15 1 7 9
M  V30 16 1 7 77
M  V30 17 1 8 78
M  V30 18 1 9 10
M  V30 19 1 9 11
M  V30 20 1 9 79
M  V30 21 1 10 80
M  V30 22 1 11 12
M  V30 23 1 11 81
M  V30 24 1 12 13
M  V30 25 2 13 14
M  V30 26 1 13 16
M  V30 27 1 14 15
M  V30 28 1 14 82
M  V30 29 2 15 18
M  V30 30 1 15 83
M  V30 31 2 16 17
M  V30 32 1 16 84
M  V30 33 1 17 18
M  V30 34 1 17 85
M  V30 35 1 18 19
M  V30 36 1 19 20
M  V30 37 1 19 86
M  V30 38 1 19 87
M  V30 39 1 20 21
M  V30 40 2 21 22
M  V30 41 1 21 23
M  V30 42 1 23 24
M  V30 43 1 23 88
M  V30 44 1 23 89
M  V30 45 1 24 25
M  V30 46 1 24 26
M  V30 47 1 24 48
M  V30 48 1 25 90
M  V30 49 2 26 27
M  V30 50 1 26 28
M  V30 51 1 28 29
M  V30 52 1 29 30
M  V30 53 1 29 91
M  V30 54 1 29 92
M  V30 55 2 30 31
M  V30 56 1 30 33
M  V30 57 1 31 32
M  V30 58 1 31 93
M  V30 59 2 32 35
M  V30 60 1 32 94
M  V30 61 2 33 34
M  V30 62 1 33 95
M  V30 63 1 34 35
M  V30 64 1 34 96
M  V30 65 1 35 36
M  V30 66 1 36 37
M  V30 67 1 37 38
M  V30 68 1 37 46
M  V30 69 1 37 97
M  V30 70 1 38 39
M  V30 71 1 39 40
M  V30 72 1 39 42
M  V30 73 1 39 98
M  V30 74 1 40 41
M  V30 75 1 40 99
M  V30 76 1 40 100
M  V30 77 1 41 101
M  V30 78 1 42 43
M  V30 79 1 42 44
M  V30 80 1 42 102
M  V30 81 1 43 103
M  V30 82 1 44 45
M  V30 83 1 44 46
M  V30 84 1 44 104
M  V30 85 1 45 105
M  V30 86 1 46 47
M  V30 87 1 46 106
M  V30 88 1 47 107
M  V30 89 1 48 49
M  V30 90 1 48 108
M  V30 91 1 48 109
M  V30 92 2 49 50
M  V30 93 1 49 51
M  V30 94 1 51 52
M  V30 95 1 52 53
M  V30 96 1 52 110
M  V30 97 1 52 111
M  V30 98 2 53 54
M  V30 99 1 53 58
M  V30 100 1 54 55
M  V30 101 1 54 112
M  V30 102 2 55 56
M  V30 103 1 55 113
M  V30 104 1 56 57
M  V30 105 1 56 59
M  V30 106 2 57 58
M  V30 107 1 57 114
M  V30 108 1 58 115
M  V30 109 1 59 60
M  V30 110 1 60 61
M  V30 111 1 60 68
M  V30 112 1 60 116
M  V30 113 1 61 62
M  V30 114 1 61 63
M  V30 115 1 61 117
M  V30 116 1 62 118
M  V30 117 1 63 64
M  V30 118 1 63 65
M  V30 119 1 63 119
M  V30 120 1 64 120
M  V30 121 1 65 66
M  V30 122 1 65 67
M  V30 123 1 65 121
M  V30 124 1 66 122
M  V30 125 1 67 68
M  V30 126 1 67 69
M  V30 127 1 67 123
M  V30 128 1 69 70
M  V30 129 1 69 124
M  V30 130 1 69 125
M  V30 131 1 70 126
M  V30 END BOND
M  V30 END CTAB
M  END
> <s_m_entry_id>
90

> <s_m_entry_name>
result.5926

> <s_m_Source_Path>
D:\OneDrive - zju.edu.cn\DOC\A-Finished\LCK_VS\Planet\LCK-8617

> <s_m_Source_File>
glide-dock_SP_top1262_2_pv.maegz

> <i_m_Source_File_Index>
90

> <PLANET_affinity>
7.609

> <i_lp_mmshare_version>
54117

> <i_f3d_flags>
0

> <s_epik_input>
W09IXVtDQEBIXTFbQ0BASF0oW09IXSlbQ0BIXShbT0hdKVtDQEBIXShbQ0gyXVtPSF0pT1tDQEhdMU9jKFtjSF1bY0hdMilbY0hdW2NIXWMyW0NIMl1PQyg9TylDKFtPSF0pKFtDSDJdQyg9TylPW0NIMl1jKFtjSF1bY0hdMylbY0hdW2NIXWMzT1tDQEhdKE9bQ0BASF00W0NIMl1bT0hdKVtDQEhdKFtPSF0pW0NAQEhdKFtPSF0pW0NAQEhdNFtPSF0pW0NIMl1DKD1PKU9bQ0gyXWM1W2NIXVtjSF1jKFtjSF1bY0hdNSlPW0NASF02W0NASF0oW09IXSlbQ0BASF0oW09IXSlbQ0BIXShbT0hdKVtDQEhdKE82KVtDSDJdW09IXQ==

> <s_epik_cmdline>
J2VwaWtfcHl0aG9uJywgJy1waCcsICc3LjAnLCAnLXRuJywgJzgnLCAnLW1hJywgJzUwMCcsICctaW1hZScsICc8aW5maWxlLm1hZT4nLCAnLW9tYWUnLCAnPG91dGZpbGUubWFlPic=

> <r_epik_Ionization_Penalty>
  0.0000

> <r_epik_Ionization_Penalty_Charging>
  0.0000

> <r_epik_Ionization_Penalty_Neutral>
  0.0000

> <r_epik_State_Penalty>
  0.0000

> <r_epik_Charging_Adjusted_Penalty>
0

> <i_epik_Tot_Q>
0

> <i_epik_Tot_abs_Q>
0

> <s_epik_Chemistry_Notes>
This compound has an ester and may undergo hydrolysis at high or low pH. This compound contains an acetal/aminal-like group ( X-CH(R)-Y where X, Y are N, S, or O) that may be acid/base labile, releasing an aldehyde.

> <s_lp_Force_Field>
S-OPLS

> <r_lp_Energy>
61.217

> <b_lp_Chiralities_Consistent>
1

> <s_lp_Variant>
O[C@H]([C@@H](O)[C@@H]1O)[C@@H](O[C@@H]1CO)OC2=CC=C(COC(C(CC(OCC3=CC=C(O[C@@H...-1

> <s_i_glide_gridfile>
glide-grid_1

> <i_i_glide_lignum>
1791

> <i_i_glide_rotatable_bonds>
36

> <r_i_docking_score>
-9.22806298048605

> <r_i_glide_ligand_efficiency>
-0.131829471149801

> <r_i_glide_ligand_efficiency_sa>
-0.543306860761798

> <r_i_glide_ligand_efficiency_ln>
-1.75823022693316

> <r_i_glide_gscore>
-9.22806298048605

> <r_i_glide_lipo>
-2.90782699278286

> <r_i_glide_hbond>
-0.294861969993588

> <r_i_glide_metal>
0

> <r_i_glide_rewards>
0.328992543998219

> <r_i_glide_evdw>
-64.4015045166016

> <r_i_glide_ecoul>
-22.7033920288086

> <r_i_glide_erotb>
0.29264456294516

> <r_i_glide_esite>
-0.0214270945016085

> <r_i_glide_emodel>
-127.153074934104

> <r_i_glide_energy>
-87.1048965454102

> <r_i_glide_einternal>
21.3473320007324

> <i_i_glide_confnum>
222

> <i_i_glide_posenum>
207

> <r_i_glide_eff_state_penalty>
0

> <r_lp_tautomer_probability>
1

> <s_m_subgroup_title>
glide-dock_SP_top1262_2_pv

> <s_m_subgroupid>
glide-dock_SP_top1262_2_pv

> <b_m_subgroup_collapsed>
0

$$$$
O=C1C(O[C@H]2[C@@H]([C@H]([C@@H]([C@@H](CO[C@H]3[C@@H]([C@@H]([C@H]([C@H](C)O...
                    3D
 Schrodinger Suite 2021-3.
  0  0  0     0  0            999 V3000
M  V30 BEGIN CTAB
M  V30 COUNTS 94 98 0 0 0
M  V30 BEGIN ATOM
M  V30 1 O  20.0830 34.7593 88.0435 0
M  V30 2 C  21.3779 34.6035 87.4953 0
M  V30 3 C  22.0083 35.9426 87.0676 0
M  V30 4 O  21.3891 36.4278 85.8807 0
M  V30 5 C  21.5443 37.7717 85.6152 0
M  V30 6 C  22.8124 38.3516 85.4557 0
M  V30 7 C  20.3951 38.5587 85.4880 0
M  V30 8 O  19.1789 37.9461 85.7174 0
M  V30 9 C  18.0252 38.7464 85.9627 0
M  V30 10 C  16.9508 37.8692 86.6186 0
M  V30 11 O  17.2771 37.5567 87.9628 0
M  V30 12 C  20.5331 39.9094 85.1471 0
M  V30 13 C  21.7938 40.4671 84.9596 0
M  V30 14 C  22.9642 39.7130 85.1383 0
M  V30 15 C  24.3256 40.3296 85.0280 0
M  V30 16 O  25.2495 39.3958 84.6699 0
M  V30 17 C  24.6346 41.6424 85.1819 0
M  V30 18 C  25.9929 42.1656 84.9522 0
M  V30 19 O  26.2911 43.3542 85.0575 0
M  V30 20 C  26.9904 41.1092 84.5733 0
M  V30 21 C  26.5551 39.7821 84.4434 0
M  V30 22 C  28.3500 41.3817 84.3265 0
M  V30 23 O  28.8829 42.6387 84.4435 0
M  V30 24 C  29.2129 40.3579 83.9466 0
M  V30 25 C  28.7706 39.0456 83.8205 0
M  V30 26 C  27.4242 38.7637 84.0682 0
M  V30 27 O  29.7155 38.1109 83.4568 0
M  V30 28 C  29.3237 36.7591 83.2301 0
M  V30 29 C  30.5585 35.9190 82.8667 0
M  V30 30 O  31.1187 36.3565 81.6435 0
M  V30 31 O  23.6775 42.5782 85.4147 0
M  V30 32 C  23.6540 43.2022 86.6699 0 CFG=1
M  V30 33 C  22.9122 44.5336 86.4428 0 CFG=2
M  V30 34 O  23.6830 45.4078 85.6436 0
M  V30 35 C  22.4742 45.2018 87.7641 0 CFG=1
M  V30 36 O  21.6830 46.3567 87.5356 0
M  V30 37 C  21.7582 44.1669 88.6511 0 CFG=2
M  V30 38 O  21.2262 44.7452 89.8295 0
M  V30 39 C  22.7408 42.9914 88.8568 0 CFG=2
M  V30 40 O  22.9407 42.3892 87.5728 0
M  V30 41 C  22.2723 41.8803 89.8205 0
M  V30 42 O  22.2102 42.1679 91.2244 0
M  V30 43 C  23.1151 43.0780 91.7999 0 CFG=1
M  V30 44 C  22.9500 43.0175 93.3225 0 CFG=2
M  V30 45 O  23.5957 44.1192 93.9504 0
M  V30 46 C  23.4540 41.6506 93.8379 0 CFG=2
M  V30 47 O  23.2829 41.5565 95.2435 0
M  V30 48 C  24.9012 41.3830 93.3581 0 CFG=1
M  V30 49 O  25.3199 40.0607 93.6434 0
M  V30 50 C  25.0235 41.6221 91.8364 0 CFG=1
M  V30 51 O  24.4555 42.8655 91.4310 0
M  V30 52 C  26.4799 41.6360 91.3494 0
M  V30 53 H  19.7272 33.8927 88.2723 0
M  V30 54 H  21.2830 33.9567 86.6235 0
M  V30 55 H  22.0284 34.0786 88.1952 0
M  V30 56 H  23.0622 35.7814 86.8435 0
M  V30 57 H  21.9608 36.6611 87.8891 0
M  V30 58 H  23.6865 37.7300 85.5785 0
M  V30 59 H  17.6547 39.1295 85.0105 0
M  V30 60 H  18.2359 39.6064 86.6017 0
M  V30 61 H  16.8779 36.9303 86.0676 0
M  V30 62 H  15.9756 38.3490 86.5481 0
M  V30 63 H  16.9183 38.2518 88.5304 0
M  V30 64 H  19.6731 40.5467 85.0182 0
M  V30 65 H  21.8279 41.5068 84.6765 0
M  V30 66 H  29.7899 42.7488 84.1206 0
M  V30 67 H  30.2548 40.5739 83.7587 0
M  V30 68 H  27.0336 37.7633 83.9821 0
M  V30 69 H  28.8832 36.3565 84.1424 0
M  V30 70 H  28.5708 36.6898 82.4434 0
M  V30 71 H  31.3229 36.0383 83.6358 0
M  V30 72 H  30.3134 34.8570 82.8189 0
M  V30 73 H  31.0048 35.6736 80.9698 0
M  V30 74 H  24.6501 43.3444 87.0975 0
M  V30 75 H  22.0109 44.2860 85.8795 0
M  V30 76 H  23.1250 45.6197 84.8808 0
M  V30 77 H  23.3640 45.5636 88.2830 0
M  V30 78 H  20.8486 46.0644 87.1257 0
M  V30 79 H  20.8829 43.7845 88.1210 0
M  V30 80 H  20.6270 45.4469 89.5525 0
M  V30 81 H  23.7031 43.3641 89.2074 0
M  V30 82 H  21.2850 41.5377 89.5126 0
M  V30 83 H  22.9219 41.0146 89.6961 0
M  V30 84 H  22.9232 44.0785 91.4189 0
M  V30 85 H  21.8862 43.1207 93.5461 0
M  V30 86 H  23.1851 44.9319 93.6437 0
M  V30 87 H  22.7993 40.8833 93.4193 0
M  V30 88 H  23.8186 40.8269 95.5802 0
M  V30 89 H  25.5792 42.0589 93.8805 0
M  V30 90 H  25.2830 39.9234 94.6030 0
M  V30 91 H  24.5024 40.8185 91.3139 0
M  V30 92 H  26.9956 40.7263 91.6437 0
M  V30 93 H  26.5291 41.7122 90.2625 0
M  V30 94 H  27.0292 42.4792 91.7691 0
M  V30 END ATOM
M  V30 BEGIN BOND
M  V30 1 1 1 2
M  V30 2 1 1 53
M  V30 3 1 2 3
M  V30 4 1 2 54
M  V30 5 1 2 55
M  V30 6 1 3 4
M  V30 7 1 3 56
M  V30 8 1 3 57
M  V30 9 1 4 5
M  V30 10 2 5 6
M  V30 11 1 5 7
M  V30 12 1 6 14
M  V30 13 1 6 58
M  V30 14 1 7 8
M  V30 15 2 7 12
M  V30 16 1 8 9
M  V30 17 1 9 10
M  V30 18 1 9 59
M  V30 19 1 9 60
M  V30 20 1 10 11
M  V30 21 1 10 61
M  V30 22 1 10 62
M  V30 23 1 11 63
M  V30 24 1 12 13
M  V30 25 1 12 64
M  V30 26 2 13 14
M  V30 27 1 13 65
M  V30 28 1 14 15
M  V30 29 1 15 16
M  V30 30 2 15 17
M  V30 31 1 16 21
M  V30 32 1 17 18
M  V30 33 1 17 31
M  V30 34 2 18 19
M  V30 35 1 18 20
M  V30 36 2 20 21
M  V30 37 1 20 22
M  V30 38 1 21 26
M  V30 39 1 22 23
M  V30 40 2 22 24
M  V30 41 1 23 66
M  V30 42 1 24 25
M  V30 43 1 24 67
M  V30 44 2 25 26
M  V30 45 1 25 27
M  V30 46 1 26 68
M  V30 47 1 27 28
M  V30 48 1 28 29
M  V30 49 1 28 69
M  V30 50 1 28 70
M  V30 51 1 29 30
M  V30 52 1 29 71
M  V30 53 1 29 72
M  V30 54 1 30 73
M  V30 55 1 31 32
M  V30 56 1 32 33
M  V30 57 1 32 40
M  V30 58 1 32 74
M  V30 59 1 33 34
M  V30 60 1 33 35
M  V30 61 1 33 75
M  V30 62 1 34 76
M  V30 63 1 35 36
M  V30 64 1 35 37
M  V30 65 1 35 77
M  V30 66 1 36 78
M  V30 67 1 37 38
M  V30 68 1 37 39
M  V30 69 1 37 79
M  V30 70 1 38 80
M  V30 71 1 39 40
M  V30 72 1 39 41
M  V30 73 1 39 81
M  V30 74 1 41 42
M  V30 75 1 41 82
M  V30 76 1 41 83
M  V30 77 1 42 43
M  V30 78 1 43 44
M  V30 79 1 43 51
M  V30 80 1 43 84
M  V30 81 1 44 45
M  V30 82 1 44 46
M  V30 83 1 44 85
M  V30 84 1 45 86
M  V30 85 1 46 47
M  V30 86 1 46 48
M  V30 87 1 46 87
M  V30 88 1 47 88
M  V30 89 1 48 49
M  V30 90 1 48 50
M  V30 91 1 48 89
M  V30 92 1 49 90
M  V30 93 1 50 51
M  V30 94 1 50 52
M  V30 95 1 50 91
M  V30 96 1 52 92
M  V30 97 1 52 93
M  V30 98 1 52 94
M  V30 END BOND
M  V30 END CTAB
M  END
> <s_m_entry_id>
94

> <s_m_entry_name>
result.3332

> <s_m_Source_Path>
D:\OneDrive - zju.edu.cn\DOC\A-Finished\LCK_VS\Planet\LCK-8617

> <s_m_Source_File>
glide-dock_SP_top1262_2_pv.maegz

> <i_m_Source_File_Index>
94

> <PLANET_affinity>
8.523

> <i_lp_mmshare_version>
54117

> <i_f3d_flags>
0

> <s_epik_input>
W09IXVtDSDJdW0NIMl1PYzFbY0hdW2NIXWMoW2NIXWMxT1tDSDJdW0NIMl1bT0hdKS1jKG9jKGMyMylbY0hdYyhbY0hdYzNbT0hdKU9bQ0gyXVtDSDJdW09IXSljKGMyPU8pT1tDQEhdNFtDQEhdKFtPSF0pW0NAQEhdKFtPSF0pW0NASF0oW09IXSlbQ0BIXShPNClbQ0gyXU9bQ0BIXTVbQ0BIXShbT0hdKVtDQEhdKFtPSF0pW0NAQEhdKFtPSF0pW0NAQEhdKE81KVtDSDNd

> <s_epik_cmdline>
J2VwaWtfcHl0aG9uJywgJy1waCcsICc3LjAnLCAnLXRuJywgJzgnLCAnLW1hJywgJzUwMCcsICctaW1hZScsICc8aW5maWxlLm1hZT4nLCAnLW9tYWUnLCAnPG91dGZpbGUubWFlPic=

> <r_epik_Ionization_Penalty>
  0.0042

> <r_epik_Ionization_Penalty_Charging>
  0.0000

> <r_epik_Ionization_Penalty_Neutral>
  0.0042

> <r_epik_State_Penalty>
  0.0030

> <r_epik_Charging_Adjusted_Penalty>
0.0030417

> <i_epik_Tot_Q>
0

> <i_epik_Tot_abs_Q>
0

> <s_epik_Chemistry_Notes>
This compound contains an acetal/aminal-like group ( X-CH(R)-Y where X, Y are N, S, or O) that may be acid/base labile, releasing an aldehyde.

> <s_lp_Force_Field>
S-OPLS

> <r_lp_Energy>
57.1533

> <b_lp_Chiralities_Consistent>
1

> <s_lp_Variant>
O=C1C(O[C@H]2[C@@H]([C@H]([C@@H]([C@@H](CO[C@H]3[C@@H]([C@@H]([C@H]([C@H](C)O...-1

> <s_i_glide_gridfile>
glide-grid_1

> <i_i_glide_lignum>
783

> <i_i_glide_rotatable_bonds>
25

> <r_i_docking_score>
-9.19087801617817

> <r_i_glide_ligand_efficiency>
-0.176747654157272

> <r_i_glide_ligand_efficiency_sa>
-0.659712590214401

> <r_i_glide_ligand_efficiency_ln>
-1.85627663241175

> <r_i_glide_gscore>
-9.19387801617817

> <r_i_glide_lipo>
-2.91721556327182

> <r_i_glide_hbond>
0

> <r_i_glide_metal>
0

> <r_i_glide_rewards>
-0.00126504688345901

> <r_i_glide_evdw>
-53.0729637145996

> <r_i_glide_ecoul>
-31.1629295349121

> <r_i_glide_erotb>
0.39721265581656

> <r_i_glide_esite>
-0.018961876109469

> <r_i_glide_emodel>
-119.906214851595

> <r_i_glide_energy>
-84.2358932495117

> <r_i_glide_einternal>
27.6265602111816

> <i_i_glide_confnum>
461

> <i_i_glide_posenum>
183

> <r_i_glide_eff_state_penalty>
0.003

> <r_lp_tautomer_probability>
1

> <s_m_subgroup_title>
glide-dock_SP_top1262_2_pv

> <s_m_subgroupid>
glide-dock_SP_top1262_2_pv

> <b_m_subgroup_collapsed>
0

$$$$
C=CC(NC1=CC=C(CN(C2=NC(NC3=CC=C(N4CCN(C)CC4)C=C3)=NC=C2CN5C6=CC(OC)=CC(OC)=C6...
                    3D
 Schrodinger Suite 2021-3.
  0  0  0     0  0            999 V3000
M  V30 BEGIN CTAB
M  V30 COUNTS 85 90 0 0 0
M  V30 BEGIN ATOM
M  V30 1 C  28.6846 46.3668 84.0437 0
M  V30 2 C  28.9579 45.1683 84.5892 0
M  V30 3 C  27.9457 44.1737 84.8418 0
M  V30 4 O  26.7460 44.4467 84.8950 0
M  V30 5 N  28.4734 42.9438 85.0214 0
M  V30 6 C  27.8088 41.7370 85.3131 0
M  V30 7 C  28.5624 40.7387 85.9343 0
M  V30 8 C  27.9653 39.5354 86.3021 0
M  V30 9 C  26.6117 39.3136 86.0420 0
M  V30 10 C  25.8672 40.2903 85.3703 0
M  V30 11 C  26.4612 41.4963 85.0062 0
M  V30 12 C  25.9808 37.9997 86.5084 0
M  V30 13 N  24.8813 37.4380 85.6795 0
M  V30 14 C  23.5934 37.7607 86.0435 0
M  V30 15 O  23.3303 38.5449 86.9626 0
M  V30 16 N  22.6135 37.1882 85.2630 0
M  V30 17 C  21.2493 37.4235 85.4736 0
M  V30 18 C  20.6172 37.1835 86.7007 0
M  V30 19 C  19.2361 37.3420 86.8225 0
M  V30 20 O  18.6706 37.0525 88.0437 0
M  V30 21 C  17.2820 37.3103 88.2193 0
M  V30 22 C  18.4977 37.7583 85.7051 0
M  V30 23 C  19.1244 37.9814 84.4750 0
M  V30 24 C  20.4904 37.8035 84.3722 0
M  V30 25 O  18.4859 38.3565 83.3212 0
M  V30 26 C  17.1457 38.7690 83.4177 0
M  V30 27 C  22.8594 36.0043 84.4152 0
M  V30 28 C  24.2479 36.0022 83.8403 0
M  V30 29 C  25.2427 36.7087 84.5159 0
M  V30 30 C  24.6179 35.3187 82.6880 0
M  V30 31 N  25.8904 35.3197 82.2301 0
M  V30 32 C  26.8010 36.0339 82.9352 0
M  V30 33 N  26.5260 36.7440 84.0600 0
M  V30 34 N  28.1074 35.9570 82.4436 0
M  V30 35 C  29.3474 36.4050 82.9215 0
M  V30 36 C  29.4814 37.4782 83.8059 0
M  V30 37 C  30.7379 37.8469 84.2762 0
M  V30 38 C  31.8870 37.1567 83.8674 0
M  V30 39 C  31.7443 36.1113 82.9460 0
M  V30 40 C  30.4882 35.7428 82.4720 0
M  V30 41 N  33.1526 37.4881 84.3494 0
M  V30 42 C  33.4497 38.7482 85.0580 0
M  V30 43 C  33.3369 38.6029 86.5968 0
M  V30 44 N  34.2950 37.5984 87.0612 0
M  V30 45 C  34.2517 37.4704 88.5142 0
M  V30 46 C  33.9661 36.3176 86.4291 0
M  V30 47 C  34.0468 36.4422 84.8858 0
M  V30 48 H  27.6825 46.6623 83.7674 0
M  V30 49 H  29.4816 47.0729 83.8597 0
M  V30 50 H  29.9794 44.9134 84.8432 0
M  V30 51 H  29.4803 42.8900 84.9661 0
M  V30 52 H  29.6072 40.8984 86.1599 0
M  V30 53 H  28.5551 38.7752 86.7950 0
M  V30 54 H  24.8221 40.1379 85.1455 0
M  V30 55 H  25.8576 42.2328 84.4956 0
M  V30 56 H  26.7644 37.2450 86.5836 0
M  V30 57 H  25.6484 38.1512 87.5372 0
M  V30 58 H  21.1891 36.8535 87.5551 0
M  V30 59 H  16.9873 37.1120 89.2433 0
M  V30 60 H  17.0668 38.3562 88.0205 0
M  V30 61 H  16.6649 36.6971 87.5623 0
M  V30 62 H  17.4306 37.8842 85.7822 0
M  V30 63 H  20.9526 37.9562 83.4114 0
M  V30 64 H  16.8829 39.1561 82.4433 0
M  V30 65 H  16.4832 37.9568 83.6731 0
M  V30 66 H  17.0010 39.5567 84.1571 0
M  V30 67 H  22.7504 35.1565 85.0781 0
M  V30 68 H  22.0974 35.8730 83.6451 0
M  V30 69 H  23.8892 34.7560 82.1202 0
M  V30 70 H  28.1497 35.4507 81.5652 0
M  V30 71 H  28.6237 38.0422 84.1329 0
M  V30 72 H  30.7997 38.6658 84.9763 0
M  V30 73 H  32.6111 35.5763 82.5859 0
M  V30 74 H  30.4094 34.9240 81.7706 0
M  V30 75 H  34.4630 39.0605 84.7983 0
M  V30 76 H  32.8016 39.5501 84.7061 0
M  V30 77 H  33.5512 39.5631 87.0691 0
M  V30 78 H  32.3170 38.3322 86.8765 0
M  V30 79 H  34.9745 36.7287 88.8570 0
M  V30 80 H  34.5024 38.4191 88.9920 0
M  V30 81 H  33.2668 37.1619 88.8636 0
M  V30 82 H  32.9727 35.9786 86.7285 0
M  V30 83 H  34.6707 35.5571 86.7669 0
M  V30 84 H  33.8168 35.4682 84.4554 0
M  V30 85 H  35.0729 36.6647 84.5891 0
M  V30 END ATOM
M  V30 BEGIN BOND
M  V30 1 2 1 2
M  V30 2 1 1 48
M  V30 3 1 1 49
M  V30 4 1 2 3
M  V30 5 1 2 50
M  V30 6 2 3 4
M  V30 7 1 3 5
M  V30 8 1 5 6
M  V30 9 1 5 51
M  V30 10 2 6 7
M  V30 11 1 6 11
M  V30 12 1 7 8
M  V30 13 1 7 52
M  V30 14 2 8 9
M  V30 15 1 8 53
M  V30 16 1 9 10
M  V30 17 1 9 12
M  V30 18 2 10 11
M  V30 19 1 10 54
M  V30 20 1 11 55
M  V30 21 1 12 13
M  V30 22 1 12 56
M  V30 23 1 12 57
M  V30 24 1 13 14
M  V30 25 1 13 29
M  V30 26 2 14 15
M  V30 27 1 14 16
M  V30 28 1 16 17
M  V30 29 1 16 27
M  V30 30 2 17 18
M  V30 31 1 17 24
M  V30 32 1 18 19
M  V30 33 1 18 58
M  V30 34 1 19 20
M  V30 35 2 19 22
M  V30 36 1 20 21
M  V30 37 1 21 59
M  V30 38 1 21 60
M  V30 39 1 21 61
M  V30 40 1 22 23
M  V30 41 1 22 62
M  V30 42 2 23 24
M  V30 43 1 23 25
M  V30 44 1 24 63
M  V30 45 1 25 26
M  V30 46 1 26 64
M  V30 47 1 26 65
M  V30 48 1 26 66
M  V30 49 1 27 28
M  V30 50 1 27 67
M  V30 51 1 27 68
M  V30 52 2 28 29
M  V30 53 1 28 30
M  V30 54 1 29 33
M  V30 55 2 30 31
M  V30 56 1 30 69
M  V30 57 1 31 32
M  V30 58 2 32 33
M  V30 59 1 32 34
M  V30 60 1 34 35
M  V30 61 1 34 70
M  V30 62 2 35 36
M  V30 63 1 35 40
M  V30 64 1 36 37
M  V30 65 1 36 71
M  V30 66 2 37 38
M  V30 67 1 37 72
M  V30 68 1 38 39
M  V30 69 1 38 41
M  V30 70 2 39 40
M  V30 71 1 39 73
M  V30 72 1 40 74
M  V30 73 1 41 42
M  V30 74 1 41 47
M  V30 75 1 42 43
M  V30 76 1 42 75
M  V30 77 1 42 76
M  V30 78 1 43 44
M  V30 79 1 43 77
M  V30 80 1 43 78
M  V30 81 1 44 45
M  V30 82 1 44 46
M  V30 83 1 45 79
M  V30 84 1 45 80
M  V30 85 1 45 81
M  V30 86 1 46 47
M  V30 87 1 46 82
M  V30 88 1 46 83
M  V30 89 1 47 84
M  V30 90 1 47 85
M  V30 END BOND
M  V30 END CTAB
M  END
> <s_m_entry_id>
102

> <s_m_entry_name>
result.4568

> <s_m_Source_Path>
D:\OneDrive - zju.edu.cn\DOC\A-Finished\LCK_VS\Planet\LCK-8617

> <s_m_Source_File>
glide-dock_SP_top1262_2_pv.maegz

> <i_m_Source_File_Index>
102

> <PLANET_affinity>
9.583

> <i_lp_mmshare_version>
54117

> <i_f3d_flags>
0

> <s_epik_input>
W0NIMl09W0NIXUMoPU8pW05IXWMxW2NIXVtjSF1jKFtjSF1bY0hdMSlbQ0gyXU4oQyg9TylOKFtDSDJdMiljM1tjSF1jKE9bQ0gzXSlbY0hdYyhbY0hdMylPW0NIM10pYyhjMjQpbmMobltjSF00KVtOSF1jNVtjSF1bY0hdYyhbY0hdW2NIXTUpTjZbQ0gyXVtDSDJdTihbQ0gzXSlbQ0gyXVtDSDJdNg==

> <s_epik_cmdline>
J2VwaWtfcHl0aG9uJywgJy1waCcsICc3LjAnLCAnLXRuJywgJzgnLCAnLW1hJywgJzUwMCcsICctaW1hZScsICc8aW5maWxlLm1hZT4nLCAnLW9tYWUnLCAnPG91dGZpbGUubWFlPic=

> <r_epik_Ionization_Penalty>
  1.4264

> <r_epik_Ionization_Penalty_Charging>
  0.0000

> <r_epik_Ionization_Penalty_Neutral>
  1.4264

> <r_epik_State_Penalty>
  0.7246

> <r_epik_Charging_Adjusted_Penalty>
0.724576

> <i_epik_Tot_Q>
0

> <i_epik_Tot_abs_Q>
0

> <s_lp_Force_Field>
S-OPLS

> <r_lp_Energy>
108.788

> <b_lp_Chiralities_Consistent>
1

> <s_lp_Variant>
C=CC(NC1=CC=C(CN(C2=NC(NC3=CC=C(N4CCN(C)CC4)C=C3)=NC=C2CN5C6=CC(OC)=CC(OC)=C6...-2

> <s_i_glide_gridfile>
glide-grid_1

> <i_i_glide_lignum>
321

> <i_i_glide_rotatable_bonds>
11

> <r_i_docking_score>
-9.11879433854764

> <r_i_glide_ligand_efficiency>
-0.194016900820163

> <r_i_glide_ligand_efficiency_sa>
-0.700173250768895

> <r_i_glide_ligand_efficiency_ln>
-1.88010656321728

> <r_i_glide_gscore>
-9.84339433854764

> <r_i_glide_lipo>
-3.73179801220324

> <r_i_glide_hbond>
-0.697842770991124

> <r_i_glide_metal>
0

> <r_i_glide_rewards>
-1.84476660926579

> <r_i_glide_evdw>
-59.7760009765625

> <r_i_glide_ecoul>
-5.13901329040527

> <r_i_glide_erotb>
0.231881879968511

> <r_i_glide_esite>
-0.0412167836670864

> <r_i_glide_emodel>
-101.497639304579

> <r_i_glide_energy>
-64.9150142669678

> <r_i_glide_einternal>
4.93005847930908

> <i_i_glide_confnum>
303

> <i_i_glide_posenum>
75

> <r_i_glide_eff_state_penalty>
0.7246

> <r_lp_tautomer_probability>
1

> <s_m_subgroup_title>
glide-dock_SP_top1262_2_pv

> <s_m_subgroupid>
glide-dock_SP_top1262_2_pv

> <b_m_subgroup_collapsed>
0

$$$$
O=C(N)C1=CC=CN=C1NC2=NC(C3=CC=C(C(OC)=C3)OC)=CC4=NC=CN24.[H]Cl.[H]Cl
                    3D
 Schrodinger Suite 2021-3.
  0  0  0     0  0            999 V3000
M  V30 BEGIN CTAB
M  V30 COUNTS 47 50 0 0 0
M  V30 BEGIN ATOM
M  V30 1 O  28.6984 39.3987 84.4331 0
M  V30 2 C  28.9583 39.5567 85.6243 0
M  V30 3 N  30.2222 39.5960 86.0435 0
M  V30 4 C  27.8693 39.6793 86.6758 0
M  V30 5 C  28.0516 40.5264 87.7821 0
M  V30 6 C  27.0405 40.6732 88.7313 0
M  V30 7 C  25.8584 39.9591 88.5591 0
M  V30 8 N  25.6503 39.1308 87.5090 0
M  V30 9 C  26.6338 38.9922 86.5795 0
M  V30 10 N  26.4131 38.1048 85.5163 0
M  V30 11 C  25.3207 37.3743 85.0276 0
M  V30 12 N  25.5612 36.4963 83.9989 0
M  V30 13 C  24.5217 35.7536 83.4197 0
M  V30 14 C  26.7006 36.1225 83.3243 0
M  V30 15 C  26.2875 35.1377 82.4435 0
M  V30 16 N  24.9891 34.9316 82.4494 0
M  V30 17 N  24.0661 37.5426 85.5244 0
M  V30 18 C  23.0420 36.8590 84.9470 0
M  V30 19 C  23.2189 35.9566 83.8946 0
M  V30 20 C  21.6815 37.1687 85.4336 0
M  V30 21 C  21.2268 36.7267 86.6784 0
M  V30 22 C  19.9105 36.9679 87.0755 0
M  V30 23 C  19.0225 37.6648 86.2349 0
M  V30 24 O  17.7002 37.9158 86.5502 0
M  V30 25 C  17.1567 37.3930 87.7546 0
M  V30 26 C  19.4930 38.1269 84.9943 0
M  V30 27 C  20.8050 37.8712 84.6062 0
M  V30 28 O  18.7107 38.8553 84.1306 0
M  V30 29 C  17.6795 38.1218 83.4923 0
M  V30 30 H  30.9625 39.5369 85.3615 0
M  V30 31 H  30.4442 39.5539 87.0310 0
M  V30 32 H  28.9673 41.0879 87.9071 0
M  V30 33 H  27.1712 41.3306 89.5782 0
M  V30 34 H  25.0492 40.0457 89.2696 0
M  V30 35 H  27.2308 38.0309 84.9256 0
M  V30 36 H  27.6830 36.5196 83.5376 0
M  V30 37 H  26.9368 34.5757 81.7873 0
M  V30 38 H  22.3874 35.4217 83.4587 0
M  V30 39 H  21.8889 36.1746 87.3303 0
M  V30 40 H  19.5949 36.5985 88.0391 0
M  V30 41 H  16.0826 37.5706 87.7792 0
M  V30 42 H  17.2960 36.3154 87.8195 0
M  V30 43 H  17.5993 37.8697 88.6293 0
M  V30 44 H  21.1426 38.2243 83.6439 0
M  V30 45 H  17.2897 38.6926 82.6503 0
M  V30 46 H  18.0251 37.1593 83.1133 0
M  V30 47 H  16.8542 37.9571 84.1815 0
M  V30 END ATOM
M  V30 BEGIN BOND
M  V30 1 2 1 2
M  V30 2 1 2 3
M  V30 3 1 2 4
M  V30 4 1 3 30
M  V30 5 1 3 31
M  V30 6 2 4 5
M  V30 7 1 4 9
M  V30 8 1 5 6
M  V30 9 1 5 32
M  V30 10 2 6 7
M  V30 11 1 6 33
M  V30 12 1 7 8
M  V30 13 1 7 34
M  V30 14 2 8 9
M  V30 15 1 9 10
M  V30 16 1 10 11
M  V30 17 1 10 35
M  V30 18 1 11 12
M  V30 19 2 11 17
M  V30 20 1 12 13
M  V30 21 1 12 14
M  V30 22 1 13 19
M  V30 23 2 13 16
M  V30 24 2 14 15
M  V30 25 1 14 36
M  V30 26 1 15 16
M  V30 27 1 15 37
M  V30 28 1 17 18
M  V30 29 2 18 19
M  V30 30 1 18 20
M  V30 31 1 19 38
M  V30 32 2 20 21
M  V30 33 1 20 27
M  V30 34 1 21 22
M  V30 35 1 21 39
M  V30 36 2 22 23
M  V30 37 1 22 40
M  V30 38 1 23 24
M  V30 39 1 23 26
M  V30 40 1 24 25
M  V30 41 1 25 41
M  V30 42 1 25 42
M  V30 43 1 25 43
M  V30 44 2 26 27
M  V30 45 1 26 28
M  V30 46 1 27 44
M  V30 47 1 28 29
M  V30 48 1 29 45
M  V30 49 1 29 46
M  V30 50 1 29 47
M  V30 END BOND
M  V30 END CTAB
M  END
> <s_m_entry_id>
108

> <s_m_entry_name>
result.3931

> <s_m_Source_Path>
D:\OneDrive - zju.edu.cn\DOC\A-Finished\LCK_VS\Planet\LCK-8617

> <s_m_Source_File>
glide-dock_SP_top1262_2_pv.maegz

> <i_m_Source_File_Index>
108

> <PLANET_affinity>
7.16

> <i_lp_mmshare_version>
54117

> <i_f3d_flags>
0

> <s_epik_input>
Tz1DKFtOSDJdKWMxW2NIXVtjSF1bY0hdbmMxW05IXWMybmMoW2NIXWMobjIzKW5bY0hdW2NIXTMpLWM0W2NIXVtjSF1jKE9bQ0gzXSljKFtjSF00KU9bQ0gzXQ==

> <s_epik_cmdline>
J2VwaWtfcHl0aG9uJywgJy1waCcsICc3LjAnLCAnLXRuJywgJzgnLCAnLW1hJywgJzUwMCcsICctaW1hZScsICc8aW5maWxlLm1hZT4nLCAnLW9tYWUnLCAnPG91dGZpbGUubWFlPic=

> <r_epik_Ionization_Penalty>
  0.0367

> <r_epik_Ionization_Penalty_Charging>
  0.0362

> <r_epik_Ionization_Penalty_Neutral>
  0.0005

> <r_epik_State_Penalty>
  0.0302

> <r_epik_Charging_Adjusted_Penalty>
0.0664689

> <i_epik_Tot_Q>
0

> <i_epik_Tot_abs_Q>
0

> <s_lp_Force_Field>
S-OPLS

> <r_lp_Energy>
46.324

> <b_lp_Chiralities_Consistent>
1

> <s_lp_Variant>
O=C(N)C1=CC=CN=C1NC2=NC(C3=CC=C(C(OC)=C3)OC)=CC4=NC=CN24.[H]Cl.[H]Cl-1

> <s_i_glide_gridfile>
glide-grid_1

> <i_i_glide_lignum>
2448

> <i_i_glide_rotatable_bonds>
6

> <r_i_docking_score>
-9.03526727097136

> <r_i_glide_ligand_efficiency>
-0.311560940378323

> <r_i_glide_ligand_efficiency_sa>
-0.957213918276419

> <r_i_glide_ligand_efficiency_ln>
-2.068847090443

> <r_i_glide_gscore>
-9.06546727097136

> <r_i_glide_lipo>
-3.06259005606941

> <r_i_glide_hbond>
-0.864

> <r_i_glide_metal>
0

> <r_i_glide_rewards>
-2.19941859889116

> <r_i_glide_evdw>
-44.4253349304199

> <r_i_glide_ecoul>
-7.23402214050293

> <r_i_glide_erotb>
0.383916183287682

> <r_i_glide_esite>
-0.0170047317020375

> <r_i_glide_emodel>
-71.0084811422961

> <r_i_glide_energy>
-51.6593570709229

> <r_i_glide_einternal>
17.3217830657959

> <i_i_glide_confnum>
7

> <i_i_glide_posenum>
61

> <r_i_glide_eff_state_penalty>
0.0302

> <r_lp_tautomer_probability>
1

> <s_m_subgroup_title>
glide-dock_SP_top1262_2_pv

> <s_m_subgroupid>
glide-dock_SP_top1262_2_pv

> <b_m_subgroup_collapsed>
0

$$$$
O=C(N1CC2=CC3=C(NC(/C3=C\C4=CC(CN5CCOCC5)=CN4)=O)C=C2)SCC1=O
                    3D
 Schrodinger Suite 2021-3.
  0  0  0     0  0            999 V3000
M  V30 BEGIN CTAB
M  V30 COUNTS 53 57 0 0 0
M  V30 BEGIN ATOM
M  V30 1 S  18.0729 37.0957 87.6921 0
M  V30 2 C  17.4126 37.9710 86.2794 0
M  V30 3 C  18.5773 38.5644 85.5117 0
M  V30 4 O  18.4312 39.1566 84.4430 0
M  V30 5 N  19.7462 38.3220 86.1441 0
M  V30 6 C  19.7560 37.5438 87.2429 0
M  V30 7 O  20.7392 37.1565 87.8765 0
M  V30 8 C  21.0311 38.7787 85.5750 0
M  V30 9 C  21.7832 37.7002 84.8006 0
M  V30 10 C  23.1871 37.6256 84.8428 0
M  V30 11 C  21.0577 36.7636 84.0500 0
M  V30 12 C  21.7118 35.7641 83.3465 0
M  V30 13 C  23.0903 35.7289 83.3761 0
M  V30 14 C  23.8389 36.6415 84.0802 0
M  V30 15 N  23.9130 34.8709 82.7253 0
M  V30 16 C  25.2015 35.1599 82.9152 0
M  V30 17 O  26.1063 34.4868 82.4429 0
M  V30 18 C  25.2392 36.3621 83.7439 0
M  V30 19 C  26.3545 37.0580 84.0826 0
M  V30 20 C  27.7790 36.9067 83.7692 0
M  V30 21 C  28.9032 37.5496 84.2751 0
M  V30 22 C  30.0759 37.0209 83.7051 0
M  V30 23 C  29.6347 36.0610 82.8091 0
M  V30 24 N  28.2700 36.0207 82.8435 0
M  V30 25 C  31.5102 37.4184 84.0090 0
M  V30 26 N  32.0530 38.4255 83.0929 0
M  V30 27 C  31.3187 39.6983 83.1110 0
M  V30 28 C  31.9237 40.7274 82.1383 0
M  V30 29 O  32.0887 40.1672 80.8434 0
M  V30 30 C  32.9273 39.0166 80.8431 0
M  V30 31 C  32.3152 37.9195 81.7384 0
M  V30 32 H  16.8795 37.2700 85.6439 0
M  V30 33 H  16.7179 38.7563 86.5757 0
M  V30 34 H  21.6676 39.1636 86.3744 0
M  V30 35 H  20.8698 39.6214 84.8992 0
M  V30 36 H  23.7535 38.3567 85.4014 0
M  V30 37 H  19.9802 36.7993 83.9930 0
M  V30 38 H  21.1535 35.0347 82.7814 0
M  V30 39 H  23.5743 34.0825 82.1935 0
M  V30 40 H  26.1898 37.9164 84.7176 0
M  V30 41 H  28.8848 38.3268 85.0258 0
M  V30 42 H  30.1780 35.3994 82.1486 0
M  V30 43 H  27.6918 35.3851 82.3023 0
M  V30 44 H  32.1590 36.5416 83.9823 0
M  V30 45 H  31.5873 37.8090 85.0259 0
M  V30 46 H  31.3140 40.0988 84.1258 0
M  V30 47 H  30.2736 39.5337 82.8452 0
M  V30 48 H  31.2326 41.5568 82.0443 0
M  V30 49 H  32.8658 41.1300 82.5130 0
M  V30 50 H  33.0215 38.6536 79.8191 0
M  V30 51 H  33.9340 39.2772 81.1749 0
M  V30 52 H  31.3939 37.5474 81.2879 0
M  V30 53 H  32.9904 37.0659 81.7950 0
M  V30 END ATOM
M  V30 BEGIN BOND
M  V30 1 1 1 2
M  V30 2 1 1 6
M  V30 3 1 2 3
M  V30 4 1 2 32
M  V30 5 1 2 33
M  V30 6 2 3 4
M  V30 7 1 3 5
M  V30 8 1 5 6
M  V30 9 1 5 8
M  V30 10 2 6 7
M  V30 11 1 8 9
M  V30 12 1 8 34
M  V30 13 1 8 35
M  V30 14 2 9 10
M  V30 15 1 9 11
M  V30 16 1 10 14
M  V30 17 1 10 36
M  V30 18 2 11 12
M  V30 19 1 11 37
M  V30 20 1 12 13
M  V30 21 1 12 38
M  V30 22 2 13 14
M  V30 23 1 13 15
M  V30 24 1 14 18
M  V30 25 1 15 16
M  V30 26 1 15 39
M  V30 27 2 16 17
M  V30 28 1 16 18
M  V30 29 2 18 19
M  V30 30 1 19 20
M  V30 31 1 19 40
M  V30 32 2 20 21
M  V30 33 1 20 24
M  V30 34 1 21 22
M  V30 35 1 21 41
M  V30 36 2 22 23
M  V30 37 1 22 25
M  V30 38 1 23 24
M  V30 39 1 23 42
M  V30 40 1 24 43
M  V30 41 1 25 26
M  V30 42 1 25 44
M  V30 43 1 25 45
M  V30 44 1 26 27
M  V30 45 1 26 31
M  V30 46 1 27 28
M  V30 47 1 27 46
M  V30 48 1 27 47
M  V30 49 1 28 29
M  V30 50 1 28 48
M  V30 51 1 28 49
M  V30 52 1 29 30
M  V30 53 1 30 31
M  V30 54 1 30 50
M  V30 55 1 30 51
M  V30 56 1 31 52
M  V30 57 1 31 53
M  V30 END BOND
M  V30 END CTAB
M  END
> <s_m_entry_id>
109

> <s_m_entry_name>
result.6517

> <s_m_Source_Path>
D:\OneDrive - zju.edu.cn\DOC\A-Finished\LCK_VS\Planet\LCK-8617

> <s_m_Source_File>
glide-dock_SP_top1262_2_pv.maegz

> <i_m_Source_File_Index>
109

> <PLANET_affinity>
7.756

> <i_lp_mmshare_version>
54117

> <i_f3d_flags>
0

> <s_epik_input>
Tz1DMVtDSDJdU0MoPU8pTjFbQ0gyXWMoW2NIXVtjSF0yKVtjSF1jKGMyMykvQyhDKD1PKVtOSF0zKT1bQ0hdL2M0W2NIXWMoW2NIXVtuSF00KVtDSDJdTjVbQ0gyXVtDSDJdT1tDSDJdW0NIMl01

> <s_epik_cmdline>
J2VwaWtfcHl0aG9uJywgJy1waCcsICc3LjAnLCAnLXRuJywgJzgnLCAnLW1hJywgJzUwMCcsICctaW1hZScsICc8aW5maWxlLm1hZT4nLCAnLW9tYWUnLCAnPG91dGZpbGUubWFlPic=

> <r_epik_Ionization_Penalty>
  0.0671

> <r_epik_Ionization_Penalty_Charging>
  0.0000

> <r_epik_Ionization_Penalty_Neutral>
  0.0671

> <r_epik_State_Penalty>
  0.0586

> <r_epik_Charging_Adjusted_Penalty>
0.0586169

> <i_epik_Tot_Q>
0

> <i_epik_Tot_abs_Q>
0

> <s_lp_Force_Field>
S-OPLS

> <r_lp_Energy>
21.9477

> <b_lp_Chiralities_Consistent>
1

> <s_lp_Variant>
O=C(N1CC2=CC3=C(NC(/C3=C\C4=CC(CN5CCOCC5)=CN4)=O)C=C2)SCC1=O-1

> <s_i_glide_gridfile>
glide-grid_1

> <i_i_glide_lignum>
1559

> <i_i_glide_rotatable_bonds>
5

> <r_i_docking_score>
-9.03415367161819

> <r_i_glide_ligand_efficiency>
-0.291424311987683

> <r_i_glide_ligand_efficiency_sa>
-0.915474694266672

> <r_i_glide_ligand_efficiency_ln>
-2.03747851650988

> <r_i_glide_gscore>
-9.09275367161819

> <r_i_glide_lipo>
-3.00245264422296

> <r_i_glide_hbond>
-0.759219574332712

> <r_i_glide_metal>
0

> <r_i_glide_rewards>
-2.44085669416503

> <r_i_glide_evdw>
-43.2875595092773

> <r_i_glide_ecoul>
-7.25993347167969

> <r_i_glide_erotb>
0.363143237318341

> <r_i_glide_esite>
0

> <r_i_glide_emodel>
-76.8573602696526

> <r_i_glide_energy>
-50.547492980957

> <r_i_glide_einternal>
4.31244277954102

> <i_i_glide_confnum>
58

> <i_i_glide_posenum>
179

> <r_i_glide_eff_state_penalty>
0.0586

> <r_lp_tautomer_probability>
1

> <s_m_subgroup_title>
glide-dock_SP_top1262_2_pv

> <s_m_subgroupid>
glide-dock_SP_top1262_2_pv

> <b_m_subgroup_collapsed>
0

$$$$
CC1=C(NC(C2=CN=C(NC3=CC(N4CCN(C(COCCOCCOCCNC([C@H](CC(C)C)NC([C@@H](O)[C@@H](...
                    3D
 Schrodinger Suite 2021-3.
  0  0  0     0  0            999 V3000
M  V30 BEGIN CTAB
M  V30 COUNTS 124 128 0 0 0
M  V30 BEGIN ATOM
M  V30 1 C  18.5813 36.2666 88.0428 0
M  V30 2 C  17.7051 37.3160 87.7844 0
M  V30 3 C  18.0818 38.3391 86.9172 0
M  V30 4 C  19.3417 38.3259 86.3202 0
M  V30 5 Cl 19.7644 39.6304 85.2640 0
M  V30 6 C  20.2317 37.2724 86.5922 0
M  V30 7 C  19.8408 36.2219 87.4404 0
M  V30 8 C  20.7494 35.0227 87.6991 0
M  V30 9 N  21.5308 37.3000 86.0813 0
M  V30 10 C  21.8968 36.8266 84.8759 0
M  V30 11 O  21.1192 36.3565 84.0447 0
M  V30 12 C  23.3158 36.8580 84.6419 0
M  V30 13 C  24.0841 36.0467 83.8045 0
M  V30 14 N  25.3782 36.3054 83.7659 0
M  V30 15 C  25.7024 37.3278 84.5252 0
M  V30 16 S  24.3740 38.0516 85.3584 0
M  V30 17 N  26.9555 37.8496 84.7651 0
M  V30 18 C  28.1996 37.4559 84.2517 0
M  V30 19 C  29.3512 37.9839 84.8430 0
M  V30 20 C  30.6084 37.5571 84.3749 0
M  V30 21 N  30.6804 36.6367 83.3734 0
M  V30 22 C  29.5125 36.1825 82.8644 0
M  V30 23 N  28.2718 36.5517 83.2433 0
M  V30 24 C  29.5917 35.1701 81.7571 0
M  V30 25 N  31.8185 37.9405 84.9754 0
M  V30 26 C  33.1297 37.6490 84.3554 0
M  V30 27 C  34.3407 37.6020 85.3138 0
M  V30 28 N  34.3353 38.8128 86.1450 0
M  V30 29 C  33.1054 39.0416 86.9081 0
M  V30 30 C  31.8980 39.0385 85.9513 0
M  V30 31 C  35.4471 39.5909 86.2571 0
M  V30 32 O  36.5033 39.3242 85.6813 0
M  V30 33 C  35.3916 40.8948 87.0730 0
M  V30 34 O  34.6663 41.8684 86.3233 0
M  V30 35 C  34.2277 42.9867 87.0826 0
M  V30 36 C  33.9201 44.1566 86.1399 0
M  V30 37 O  33.3752 45.2310 86.8993 0
M  V30 38 C  33.4268 46.4951 86.2412 0
M  V30 39 C  32.5561 47.5190 86.9996 0
M  V30 40 O  31.1681 47.4957 86.6682 0
M  V30 41 C  30.5072 46.2445 86.8293 0
M  V30 42 C  29.0069 46.4236 86.5754 0
M  V30 43 N  28.3140 45.1437 86.4562 0
M  V30 44 C  27.1817 44.9539 85.7649 0
M  V30 45 O  26.5305 45.8600 85.2447 0
M  V30 46 C  26.7142 43.5001 85.6227 0 CFG=2
M  V30 47 C  27.5620 42.7033 84.5977 0
M  V30 48 C  28.9663 42.2738 85.0760 0
M  V30 49 C  29.6637 41.4502 83.9823 0
M  V30 50 C  28.9383 41.5215 86.4180 0
M  V30 51 N  25.3008 43.4576 85.2441 0
M  V30 52 C  24.5141 42.3957 85.4758 0
M  V30 53 O  24.9660 41.3318 85.9054 0
M  V30 54 C  22.9901 42.5760 85.2431 0 CFG=1
M  V30 55 O  22.4432 41.3378 84.8207 0
M  V30 56 C  22.2023 43.0197 86.5249 0 CFG=2
M  V30 57 N  22.4829 44.5060 86.8429 0 CHG=1
M  V30 58 C  22.4058 42.1246 87.7951 0
M  V30 59 C  21.7945 42.6013 89.1173 0
M  V30 60 C  20.4832 43.0829 89.1762 0
M  V30 61 C  19.9591 43.5584 90.3719 0
M  V30 62 C  20.7390 43.5253 91.5269 0
M  V30 63 C  22.0333 43.0138 91.4906 0
M  V30 64 C  22.5580 42.5508 90.2877 0
M  V30 65 H  18.2772 35.4880 88.7243 0
M  V30 66 H  16.7313 37.3387 88.2528 0
M  V30 67 H  17.3992 39.1578 86.7321 0
M  V30 68 H  20.3346 34.3405 88.4399 0
M  V30 69 H  20.9077 34.4600 86.7807 0
M  V30 70 H  21.7283 35.3528 88.0434 0
M  V30 71 H  22.2492 37.6604 86.6887 0
M  V30 72 H  23.6902 35.2331 83.2045 0
M  V30 73 H  27.0607 38.5111 85.5210 0
M  V30 74 H  29.2487 38.6843 85.6525 0
M  V30 75 H  28.8908 34.3563 81.9292 0
M  V30 76 H  29.2981 35.6685 80.8444 0
M  V30 77 H  30.5939 34.7538 81.6428 0
M  V30 78 H  33.1115 36.7227 83.7808 0
M  V30 79 H  33.3032 38.4709 83.6594 0
M  V30 80 H  35.2567 37.4884 84.7345 0
M  V30 81 H  34.2614 36.7238 85.9549 0
M  V30 82 H  32.9850 38.2260 87.6209 0
M  V30 83 H  33.0938 39.9647 87.4842 0
M  V30 84 H  31.0065 39.0798 86.5683 0
M  V30 85 H  31.9623 39.9525 85.3564 0
M  V30 86 H  36.4090 41.2559 87.2479 0
M  V30 87 H  34.9611 40.7135 88.0602 0
M  V30 88 H  34.9984 43.3048 87.7907 0
M  V30 89 H  33.3449 42.7159 87.6622 0
M  V30 90 H  33.2106 43.8611 85.3591 0
M  V30 91 H  34.8481 44.4599 85.6435 0
M  V30 92 H  33.0730 46.4149 85.2101 0
M  V30 93 H  34.4620 46.8410 86.2013 0
M  V30 94 H  32.9203 48.5283 86.7931 0
M  V30 95 H  32.6631 47.3807 88.0756 0
M  V30 96 H  30.6707 45.8335 87.8291 0
M  V30 97 H  30.9018 45.5173 86.1174 0
M  V30 98 H  28.9006 46.9905 85.6469 0
M  V30 99 H  28.5613 47.0826 87.3221 0
M  V30 100 H  28.7717 44.3408 86.8616 0
M  V30 101 H  26.7965 43.0442 86.6121 0
M  V30 102 H  27.0293 41.7995 84.3003 0
M  V30 103 H  27.6636 43.3049 83.6919 0
M  V30 104 H  29.5687 43.1719 85.2166 0
M  V30 105 H  29.4329 40.3961 84.0668 0
M  V30 106 H  29.3545 41.7593 82.9868 0
M  V30 107 H  30.7445 41.5536 84.0354 0
M  V30 108 H  28.0168 40.9537 86.5495 0
M  V30 109 H  29.7751 40.8304 86.5019 0
M  V30 110 H  29.0248 42.2142 87.2584 0
M  V30 111 H  24.9416 44.3084 84.8230 0
M  V30 112 H  22.8259 43.2859 84.4262 0
M  V30 113 H  22.8793 41.0541 84.0141 0
M  V30 114 H  21.1399 43.0628 86.2846 0
M  V30 115 H  23.4341 44.6611 87.1453 0
M  V30 116 H  22.2835 45.0689 86.0196 0
M  V30 117 H  23.4715 41.9676 87.9618 0
M  V30 118 H  22.0054 41.1308 87.5834 0
M  V30 119 H  19.8676 43.1127 88.2899 0
M  V30 120 H  18.9559 43.9634 90.3958 0
M  V30 121 H  20.3382 43.9086 92.4528 0
M  V30 122 H  22.6320 42.9880 92.3895 0
M  V30 123 H  23.5681 42.1686 90.2679 0
M  V30 124 H  21.8424 44.8074 87.5671 0
M  V30 END ATOM
M  V30 BEGIN BOND
M  V30 1 2 1 2
M  V30 2 1 1 7
M  V30 3 1 1 65
M  V30 4 1 2 3
M  V30 5 1 2 66
M  V30 6 2 3 4
M  V30 7 1 3 67
M  V30 8 1 4 5
M  V30 9 1 4 6
M  V30 10 2 6 7
M  V30 11 1 6 9
M  V30 12 1 7 8
M  V30 13 1 8 68
M  V30 14 1 8 69
M  V30 15 1 8 70
M  V30 16 1 9 10
M  V30 17 1 9 71
M  V30 18 2 10 11
M  V30 19 1 10 12
M  V30 20 2 12 13
M  V30 21 1 12 16
M  V30 22 1 13 14
M  V30 23 1 13 72
M  V30 24 2 14 15
M  V30 25 1 15 16
M  V30 26 1 15 17
M  V30 27 1 17 18
M  V30 28 1 17 73
M  V30 29 2 18 19
M  V30 30 1 18 23
M  V30 31 1 19 20
M  V30 32 1 19 74
M  V30 33 2 20 21
M  V30 34 1 20 25
M  V30 35 1 21 22
M  V30 36 2 22 23
M  V30 37 1 22 24
M  V30 38 1 24 75
M  V30 39 1 24 76
M  V30 40 1 24 77
M  V30 41 1 25 26
M  V30 42 1 25 30
M  V30 43 1 26 27
M  V30 44 1 26 78
M  V30 45 1 26 79
M  V30 46 1 27 28
M  V30 47 1 27 80
M  V30 48 1 27 81
M  V30 49 1 28 29
M  V30 50 1 28 31
M  V30 51 1 29 30
M  V30 52 1 29 82
M  V30 53 1 29 83
M  V30 54 1 30 84
M  V30 55 1 30 85
M  V30 56 2 31 32
M  V30 57 1 31 33
M  V30 58 1 33 34
M  V30 59 1 33 86
M  V30 60 1 33 87
M  V30 61 1 34 35
M  V30 62 1 35 36
M  V30 63 1 35 88
M  V30 64 1 35 89
M  V30 65 1 36 37
M  V30 66 1 36 90
M  V30 67 1 36 91
M  V30 68 1 37 38
M  V30 69 1 38 39
M  V30 70 1 38 92
M  V30 71 1 38 93
M  V30 72 1 39 40
M  V30 73 1 39 94
M  V30 74 1 39 95
M  V30 75 1 40 41
M  V30 76 1 41 42
M  V30 77 1 41 96
M  V30 78 1 41 97
M  V30 79 1 42 43
M  V30 80 1 42 98
M  V30 81 1 42 99
M  V30 82 1 43 44
M  V30 83 1 43 100
M  V30 84 2 44 45
M  V30 85 1 44 46
M  V30 86 1 46 47
M  V30 87 1 46 51
M  V30 88 1 46 101
M  V30 89 1 47 48
M  V30 90 1 47 102
M  V30 91 1 47 103
M  V30 92 1 48 49
M  V30 93 1 48 50
M  V30 94 1 48 104
M  V30 95 1 49 105
M  V30 96 1 49 106
M  V30 97 1 49 107
M  V30 98 1 50 108
M  V30 99 1 50 109
M  V30 100 1 50 110
M  V30 101 1 51 52
M  V30 102 1 51 111
M  V30 103 2 52 53
M  V30 104 1 52 54
M  V30 105 1 54 55
M  V30 106 1 54 56
M  V30 107 1 54 112
M  V30 108 1 55 113
M  V30 109 1 56 57
M  V30 110 1 56 58
M  V30 111 1 56 114
M  V30 112 1 57 115
M  V30 113 1 57 116
M  V30 114 1 57 124
M  V30 115 1 58 59
M  V30 116 1 58 117
M  V30 117 1 58 118
M  V30 118 2 59 60
M  V30 119 1 59 64
M  V30 120 1 60 61
M  V30 121 1 60 119
M  V30 122 2 61 62
M  V30 123 1 61 120
M  V30 124 1 62 63
M  V30 125 1 62 121
M  V30 126 2 63 64
M  V30 127 1 63 122
M  V30 128 1 64 123
M  V30 END BOND
M  V30 END CTAB
M  END
> <s_m_entry_id>
112

> <s_m_entry_name>
result.837

> <s_m_Source_Path>
D:\OneDrive - zju.edu.cn\DOC\A-Finished\LCK_VS\Planet\LCK-8617

> <s_m_Source_File>
glide-dock_SP_top1262_2_pv.maegz

> <i_m_Source_File_Index>
112

> <PLANET_affinity>
10.048

> <i_lp_mmshare_version>
54117

> <i_f3d_flags>
0

> <s_epik_input>
Q2xjMVtjSF1bY0hdW2NIXWMoW0NIM10pYzFbTkhdQyg9TyljMltjSF1uYyhzMilbTkhdYzNbY0hdYyhuYyhuMylbQ0gzXSlONFtDSDJdW0NIMl1OKFtDSDJdW0NIMl00KUMoPU8pW0NIMl1PW0NIMl1bQ0gyXU9bQ0gyXVtDSDJdT1tDSDJdW0NIMl1bTkhdQyg9TylbQ0BIXShbQ0gyXVtDSF0oW0NIM10pW0NIM10pW05IXUMoPU8pW0NAQEhdKFtPSF0pW0NASF0oW05IMl0pW0NIMl1jNVtjSF1bY0hdW2NIXVtjSF1bY0hdNQ==

> <s_epik_cmdline>
J2VwaWtfcHl0aG9uJywgJy1waCcsICc3LjAnLCAnLXRuJywgJzgnLCAnLW1hJywgJzUwMCcsICctaW1hZScsICc8aW5maWxlLm1hZT4nLCAnLW9tYWUnLCAnPG91dGZpbGUubWFlPic=

> <r_epik_Ionization_Penalty>
  0.0728

> <r_epik_Ionization_Penalty_Charging>
  0.0408

> <r_epik_Ionization_Penalty_Neutral>
  0.0319

> <r_epik_State_Penalty>
  0.0575

> <r_epik_Charging_Adjusted_Penalty>
0.0983548

> <i_epik_Tot_Q>
1

> <i_epik_Tot_abs_Q>
1

> <s_lp_Force_Field>
S-OPLS

> <r_lp_Energy>
90.8154

> <b_lp_Chiralities_Consistent>
1

> <s_lp_Variant>
CC1=C(NC(C2=CN=C(NC3=CC(N4CCN(C(COCCOCCOCCNC([C@H](CC(C)C)NC([C@@H](O)[C@@H](...-1

> <s_i_glide_gridfile>
glide-grid_1

> <i_i_glide_lignum>
250

> <i_i_glide_rotatable_bonds>
29

> <r_i_docking_score>
-8.99565913236763

> <r_i_glide_ligand_efficiency>
-0.140557173943244

> <r_i_glide_ligand_efficiency_sa>
-0.562228694993562

> <r_i_glide_ligand_efficiency_ln>
-1.74372223347797

> <r_i_glide_gscore>
-9.05315913236763

> <r_i_glide_lipo>
-2.84959740656802

> <r_i_glide_hbond>
-0.314794758577903

> <r_i_glide_metal>
0

> <r_i_glide_rewards>
-0.788426637779324

> <r_i_glide_evdw>
-63.4252281188965

> <r_i_glide_ecoul>
-15.0343427658081

> <r_i_glide_erotb>
0.45289163696193

> <r_i_glide_esite>
-0.126819145588271

> <r_i_glide_emodel>
-118.678511745264

> <r_i_glide_energy>
-78.4595708847046

> <r_i_glide_einternal>
20.4623851776123

> <i_i_glide_confnum>
142

> <i_i_glide_posenum>
80

> <r_i_glide_eff_state_penalty>
0.0575

> <r_lp_tautomer_probability>
1

> <s_m_subgroup_title>
glide-dock_SP_top1262_2_pv

> <s_m_subgroupid>
glide-dock_SP_top1262_2_pv

> <b_m_subgroup_collapsed>
0

$$$$
CN1CCN(CC1)C2=CC=C(C=C2)NC3=NC4=C(C=N3)N=C(NC5=CC=CC=C5)N4[C@H]6CN(CC6)S(C7CC...
                    3D
 Schrodinger Suite 2021-3.
  0  0  0     0  0            999 V3000
M  V30 BEGIN CTAB
M  V30 COUNTS 77 83 0 0 0
M  V30 BEGIN ATOM
M  V30 1 C  35.7870 39.1115 86.2611 0
M  V30 2 N  34.5578 38.2791 85.8381 0 CHG=1
M  V30 3 C  34.5233 38.1005 84.3083 0
M  V30 4 C  33.3011 37.2389 83.9335 0
M  V30 5 N  32.0067 37.7711 84.4062 0
M  V30 6 C  32.0633 38.0884 85.8506 0
M  V30 7 C  33.2518 38.9781 86.2616 0
M  V30 8 C  30.8053 37.3068 83.8793 0
M  V30 9 C  30.7144 36.0910 83.1857 0
M  V30 10 C  29.4860 35.6305 82.7198 0
M  V30 11 C  28.3240 36.3630 82.9581 0
M  V30 12 C  28.4143 37.5984 83.6097 0
M  V30 13 C  29.6445 38.0638 84.0607 0
M  V30 14 N  27.1051 35.8178 82.5195 0
M  V30 15 C  25.7986 35.9413 83.0074 0
M  V30 16 N  25.5484 36.8313 84.0008 0
M  V30 17 N  24.8909 35.1088 82.4417 0
M  V30 18 C  23.6108 35.1568 82.8973 0
M  V30 19 C  23.2575 36.0185 83.9402 0
M  V30 20 C  24.2865 36.8346 84.4388 0
M  V30 21 N  22.0778 36.2589 84.5795 0
M  V30 22 C  22.3706 37.2001 85.4507 0
M  V30 23 N  21.4771 37.7265 86.3524 0
M  V30 24 C  20.0811 37.7424 86.2182 0
M  V30 25 C  19.4730 38.0714 85.0014 0
M  V30 26 C  18.0864 38.1768 84.9249 0
M  V30 27 C  17.3158 37.9482 86.0647 0
M  V30 28 C  17.9140 37.5887 87.2688 0
M  V30 29 C  19.2986 37.4874 87.3466 0
M  V30 30 N  23.6893 37.6349 85.3927 0
M  V30 31 C  24.3027 38.7768 86.0903 0 CFG=1
M  V30 32 C  25.6686 38.4591 86.6905 0
M  V30 33 N  26.2945 39.7976 86.8109 0 CFG=2
M  V30 34 C  25.7318 40.7502 85.8079 0
M  V30 35 C  24.6026 39.9383 85.1552 0
M  V30 36 S  26.6686 40.3772 88.4271 0
M  V30 37 O  25.6543 41.3657 88.8109 0
M  V30 38 O  26.8831 39.1821 89.2436 0
M  V30 39 C  28.3445 41.2316 88.2051 0
M  V30 40 C  28.3395 42.6316 87.6411 0
M  V30 41 C  28.6320 42.4031 89.1110 0
M  V30 42 H  35.7350 40.0841 85.7660 0
M  V30 43 H  35.7534 39.2167 87.3469 0
M  V30 44 H  36.6757 38.5564 85.9553 0
M  V30 45 H  35.4583 37.6126 84.0262 0
M  V30 46 H  34.4832 39.0903 83.8485 0
M  V30 47 H  33.2739 37.1433 82.8461 0
M  V30 48 H  33.4478 36.2381 84.3482 0
M  V30 49 H  32.1342 37.1566 86.4126 0
M  V30 50 H  31.1453 38.5740 86.1816 0
M  V30 51 H  33.2962 39.1098 87.3454 0
M  V30 52 H  33.2175 39.9602 85.7829 0
M  V30 53 H  31.5859 35.4762 83.0172 0
M  V30 54 H  29.4402 34.6847 82.2005 0
M  V30 55 H  27.5454 38.2158 83.7688 0
M  V30 56 H  29.6863 39.0204 84.5615 0
M  V30 57 H  27.1926 35.1680 81.7506 0
M  V30 58 H  22.8835 34.5049 82.4489 0
M  V30 59 H  21.7867 37.8892 87.2975 0
M  V30 60 H  20.0765 38.2710 84.1268 0
M  V30 61 H  17.6090 38.4422 83.9927 0
M  V30 62 H  16.2431 38.0528 86.0226 0
M  V30 63 H  17.3017 37.4112 88.1428 0
M  V30 64 H  19.7588 37.2079 88.2819 0
M  V30 65 H  23.6270 39.0775 86.8932 0
M  V30 66 H  25.6932 37.8683 87.6040 0
M  V30 67 H  26.2777 37.9018 85.9867 0
M  V30 68 H  26.4329 40.9860 85.0043 0
M  V30 69 H  25.2427 41.6087 86.2711 0
M  V30 70 H  24.9653 39.5702 84.1952 0
M  V30 71 H  23.7183 40.5428 84.9554 0
M  V30 72 H  29.1347 40.5209 87.9605 0
M  V30 73 H  29.1522 42.9238 86.9749 0
M  V30 74 H  27.3880 43.0791 87.3507 0
M  V30 75 H  27.8863 42.6893 89.8542 0
M  V30 76 H  29.6511 42.5331 89.4777 0
M  V30 77 H  34.5951 37.3634 86.2719 0
M  V30 END ATOM
M  V30 BEGIN BOND
M  V30 1 1 1 2
M  V30 2 1 1 42
M  V30 3 1 1 43
M  V30 4 1 1 44
M  V30 5 1 2 3
M  V30 6 1 2 7
M  V30 7 1 2 77
M  V30 8 1 3 4
M  V30 9 1 3 45
M  V30 10 1 3 46
M  V30 11 1 4 5
M  V30 12 1 4 47
M  V30 13 1 4 48
M  V30 14 1 5 6
M  V30 15 1 5 8
M  V30 16 1 6 7
M  V30 17 1 6 49
M  V30 18 1 6 50
M  V30 19 1 7 51
M  V30 20 1 7 52
M  V30 21 2 8 9
M  V30 22 1 8 13
M  V30 23 1 9 10
M  V30 24 1 9 53
M  V30 25 2 10 11
M  V30 26 1 10 54
M  V30 27 1 11 12
M  V30 28 1 11 14
M  V30 29 2 12 13
M  V30 30 1 12 55
M  V30 31 1 13 56
M  V30 32 1 14 15
M  V30 33 1 14 57
M  V30 34 2 15 16
M  V30 35 1 15 17
M  V30 36 1 16 20
M  V30 37 2 17 18
M  V30 38 1 18 19
M  V30 39 1 18 58
M  V30 40 2 19 20
M  V30 41 1 19 21
M  V30 42 1 20 30
M  V30 43 2 21 22
M  V30 44 1 22 23
M  V30 45 1 22 30
M  V30 46 1 23 24
M  V30 47 1 23 59
M  V30 48 2 24 25
M  V30 49 1 24 29
M  V30 50 1 25 26
M  V30 51 1 25 60
M  V30 52 2 26 27
M  V30 53 1 26 61
M  V30 54 1 27 28
M  V30 55 1 27 62
M  V30 56 2 28 29
M  V30 57 1 28 63
M  V30 58 1 29 64
M  V30 59 1 30 31
M  V30 60 1 31 32
M  V30 61 1 31 35
M  V30 62 1 31 65
M  V30 63 1 32 33
M  V30 64 1 32 66
M  V30 65 1 32 67
M  V30 66 1 33 34
M  V30 67 1 33 36
M  V30 68 1 34 35
M  V30 69 1 34 68
M  V30 70 1 34 69
M  V30 71 1 35 70
M  V30 72 1 35 71
M  V30 73 2 36 37
M  V30 74 2 36 38
M  V30 75 1 36 39
M  V30 76 1 39 40
M  V30 77 1 39 41
M  V30 78 1 39 72
M  V30 79 1 40 41
M  V30 80 1 40 73
M  V30 81 1 40 74
M  V30 82 1 41 75
M  V30 83 1 41 76
M  V30 END BOND
M  V30 END CTAB
M  END
> <s_m_entry_id>
116

> <s_m_entry_name>
result.7844

> <s_m_Source_Path>
D:\OneDrive - zju.edu.cn\DOC\A-Finished\LCK_VS\Planet\LCK-8617

> <s_m_Source_File>
glide-dock_SP_top1262_2_pv.maegz

> <i_m_Source_File_Index>
116

> <PLANET_affinity>
10.486

> <i_lp_mmshare_version>
54117

> <i_f3d_flags>
0

> <s_epik_input>
W0NIM11OMVtDSDJdW0NIMl1OKFtDSDJdW0NIMl0xKWMyW2NIXVtjSF1jKFtjSF1bY0hdMilbTkhdYyhuW2NIXTMpbmMoYzM0KW4oW0NASF01W0NIMl1OKFtDSDJdW0NIMl01KVMoPU8pKD1PKVtDSF02W0NIMl1bQ0gyXTYpYyhuNClbTkhdYzdbY0hdW2NIXVtjSF1bY0hdW2NIXTc=

> <s_epik_cmdline>
J2VwaWtfcHl0aG9uJywgJy1waCcsICc3LjAnLCAnLXRuJywgJzgnLCAnLW1hJywgJzUwMCcsICctaW1hZScsICc8aW5maWxlLm1hZT4nLCAnLW9tYWUnLCAnPG91dGZpbGUubWFlPic=

> <r_epik_Ionization_Penalty>
  0.0731

> <r_epik_Ionization_Penalty_Charging>
  0.0647

> <r_epik_Ionization_Penalty_Neutral>
  0.0084

> <r_epik_State_Penalty>
  0.4007

> <r_epik_Charging_Adjusted_Penalty>
0.465418

> <i_epik_Tot_Q>
1

> <i_epik_Tot_abs_Q>
1

> <s_lp_Force_Field>
S-OPLS

> <r_lp_Energy>
63.971

> <b_lp_Chiralities_Consistent>
1

> <s_lp_Variant>
CN1CCN(CC1)C2=CC=C(C=C2)NC3=NC4=C(C=N3)N=C(NC5=CC=CC=C5)N4[C@H]6CN(CC6)S(C7CC...-1

> <s_i_glide_gridfile>
glide-grid_1

> <i_i_glide_lignum>
206

> <i_i_glide_rotatable_bonds>
8

> <r_i_docking_score>
-8.97140695044317

> <r_i_glide_ligand_efficiency>
-0.218814803669346

> <r_i_glide_ligand_efficiency_sa>
-0.754520977529611

> <r_i_glide_ligand_efficiency_ln>
-1.90331384001007

> <r_i_glide_gscore>
-9.37210695044317

> <r_i_glide_lipo>
-2.84083656145993

> <r_i_glide_hbond>
-0.547038166201963

> <r_i_glide_metal>
0

> <r_i_glide_rewards>
-2.35296963222083

> <r_i_glide_evdw>
-49.8944473266602

> <r_i_glide_ecoul>
-9.49505996704102

> <r_i_glide_erotb>
0.287718770828711

> <r_i_glide_esite>
0

> <r_i_glide_emodel>
-93.6467771729376

> <r_i_glide_energy>
-59.3895072937012

> <r_i_glide_einternal>
8.51772689819336

> <i_i_glide_confnum>
92

> <i_i_glide_posenum>
123

> <r_i_glide_eff_state_penalty>
0.4007

> <s_m_subgroup_title>
glide-dock_SP_top1262_2_pv

> <s_m_subgroupid>
glide-dock_SP_top1262_2_pv

> <b_m_subgroup_collapsed>
0

$$$$
O=C1C(O[C@@H]2O[C@@H]([C@@H](O)[C@H](O)[C@H]2O)COC(/C=C/C3=CC=C(O)C=C3)=O)=C(...
                    3D
 Schrodinger Suite 2021-3.
  0  0  0     0  0            999 V3000
M  V30 BEGIN CTAB
M  V30 COUNTS 69 73 0 0 0
M  V30 BEGIN ATOM
M  V30 1 C  25.5014 38.0386 84.3135 0
M  V30 2 C  26.6224 37.5519 83.6493 0
M  V30 3 C  26.6125 36.2709 83.1117 0
M  V30 4 O  27.7199 35.8247 82.4437 0
M  V30 5 C  25.4866 35.4635 83.2492 0
M  V30 6 C  24.3631 35.9570 83.9134 0
M  V30 7 C  24.3452 37.2582 84.4436 0
M  V30 8 C  23.0674 37.7990 84.9940 0
M  V30 9 O  22.4076 36.8179 85.6678 0
M  V30 10 C  22.5752 39.0582 84.8480 0
M  V30 11 C  21.1898 39.3724 85.2370 0
M  V30 12 O  20.5680 40.3569 84.8458 0
M  V30 13 C  20.5672 38.3477 86.1310 0
M  V30 14 C  21.2101 37.1118 86.2833 0
M  V30 15 C  19.3389 38.5452 86.7914 0
M  V30 16 O  18.6644 39.7348 86.7416 0
M  V30 17 C  18.7845 37.5266 87.5567 0
M  V30 18 C  19.4378 36.3093 87.6783 0
M  V30 19 C  20.6546 36.0933 87.0474 0
M  V30 20 O  18.8830 35.3314 88.4435 0
M  V30 21 O  23.2227 40.0385 84.1513 0
M  V30 22 C  23.8770 41.0739 84.8670 0 CFG=2
M  V30 23 O  24.5324 40.6146 86.0247 0
M  V30 24 C  25.4452 41.5769 86.5610 0 CFG=1
M  V30 25 C  24.5952 42.7417 87.1156 0 CFG=1
M  V30 26 O  25.3931 43.7330 87.7354 0
M  V30 27 C  23.7262 43.3550 85.9852 0 CFG=2
M  V30 28 O  22.8831 44.3659 86.5299 0
M  V30 29 C  22.9392 42.2558 85.2181 0 CFG=1
M  V30 30 O  22.3237 42.7566 84.0439 0
M  V30 31 C  26.3302 40.8597 87.6100 0
M  V30 32 O  27.2215 39.9417 86.9674 0
M  V30 33 C  28.3819 40.3722 86.4120 0
M  V30 34 O  28.8347 41.5109 86.5487 0
M  V30 35 C  29.0098 39.3514 85.5768 0
M  V30 36 C  30.0264 39.6404 84.7346 0
M  V30 37 C  30.6909 38.7251 83.7776 0
M  V30 38 C  31.6884 39.2487 82.9492 0
M  V30 39 C  32.2963 38.4484 81.9837 0
M  V30 40 C  31.9036 37.1229 81.8306 0
M  V30 41 O  32.4831 36.3647 80.8478 0
M  V30 42 C  30.9265 36.5804 82.6606 0
M  V30 43 C  30.3295 37.3774 83.6376 0
M  V30 44 H  25.5465 39.0408 84.6892 0
M  V30 45 H  27.4913 38.1799 83.5257 0
M  V30 46 H  27.5480 35.1667 81.7629 0
M  V30 47 H  25.4740 34.4628 82.8429 0
M  V30 48 H  23.4826 35.3324 83.9776 0
M  V30 49 H  17.8375 39.7858 87.2409 0
M  V30 50 H  17.8430 37.6764 88.0657 0
M  V30 51 H  21.1676 35.1476 87.1342 0
M  V30 52 H  19.3787 34.5102 88.4471 0
M  V30 53 H  24.6686 41.3887 84.1824 0
M  V30 54 H  26.1048 41.9794 85.7875 0
M  V30 55 H  23.9322 42.3552 87.8915 0
M  V30 56 H  24.8085 44.4630 87.9624 0
M  V30 57 H  24.3971 43.8597 85.2880 0
M  V30 58 H  22.1698 44.5908 85.9190 0
M  V30 59 H  22.1588 41.8916 85.8860 0
M  V30 60 H  22.1027 43.6919 84.1523 0
M  V30 61 H  25.6994 40.3037 88.3038 0
M  V30 62 H  26.8943 41.5811 88.2048 0
M  V30 63 H  28.5958 38.3576 85.6456 0
M  V30 64 H  30.4010 40.6581 84.7194 0
M  V30 65 H  31.9881 40.2849 83.0305 0
M  V30 66 H  33.0544 38.8651 81.3381 0
M  V30 67 H  31.9498 35.6133 80.5548 0
M  V30 68 H  30.6241 35.5472 82.5510 0
M  V30 69 H  29.5711 36.9358 84.2641 0
M  V30 END ATOM
M  V30 BEGIN BOND
M  V30 1 2 1 2
M  V30 2 1 1 7
M  V30 3 1 1 44
M  V30 4 1 2 3
M  V30 5 1 2 45
M  V30 6 1 3 4
M  V30 7 2 3 5
M  V30 8 1 4 46
M  V30 9 1 5 6
M  V30 10 1 5 47
M  V30 11 2 6 7
M  V30 12 1 6 48
M  V30 13 1 7 8
M  V30 14 1 8 9
M  V30 15 2 8 10
M  V30 16 1 9 14
M  V30 17 1 10 11
M  V30 18 1 10 21
M  V30 19 2 11 12
M  V30 20 1 11 13
M  V30 21 2 13 14
M  V30 22 1 13 15
M  V30 23 1 14 19
M  V30 24 1 15 16
M  V30 25 2 15 17
M  V30 26 1 16 49
M  V30 27 1 17 18
M  V30 28 1 17 50
M  V30 29 2 18 19
M  V30 30 1 18 20
M  V30 31 1 19 51
M  V30 32 1 20 52
M  V30 33 1 21 22
M  V30 34 1 22 23
M  V30 35 1 22 29
M  V30 36 1 22 53
M  V30 37 1 23 24
M  V30 38 1 24 25
M  V30 39 1 24 31
M  V30 40 1 24 54
M  V30 41 1 25 26
M  V30 42 1 25 27
M  V30 43 1 25 55
M  V30 44 1 26 56
M  V30 45 1 27 28
M  V30 46 1 27 29
M  V30 47 1 27 57
M  V30 48 1 28 58
M  V30 49 1 29 30
M  V30 50 1 29 59
M  V30 51 1 30 60
M  V30 52 1 31 32
M  V30 53 1 31 61
M  V30 54 1 31 62
M  V30 55 1 32 33
M  V30 56 2 33 34
M  V30 57 1 33 35
M  V30 58 2 35 36
M  V30 59 1 35 63
M  V30 60 1 36 37
M  V30 61 1 36 64
M  V30 62 2 37 38
M  V30 63 1 37 43
M  V30 64 1 38 39
M  V30 65 1 38 65
M  V30 66 2 39 40
M  V30 67 1 39 66
M  V30 68 1 40 41
M  V30 69 1 40 42
M  V30 70 1 41 67
M  V30 71 2 42 43
M  V30 72 1 42 68
M  V30 73 1 43 69
M  V30 END BOND
M  V30 END CTAB
M  END
> <s_m_entry_id>
117

> <s_m_entry_name>
result.5903

> <s_m_Source_Path>
D:\OneDrive - zju.edu.cn\DOC\A-Finished\LCK_VS\Planet\LCK-8617

> <s_m_Source_File>
glide-dock_SP_top1262_2_pv.maegz

> <i_m_Source_File_Index>
117

> <PLANET_affinity>
7.411

> <i_lp_mmshare_version>
54117

> <i_f3d_flags>
0

> <s_epik_input>
W09IXWMxW2NIXWMoW09IXSlbY0hdYyhjMTIpb2MoLWMoW2NIXVtjSF0zKVtjSF1bY0hdYzNbT0hdKWMoYzI9TylPW0NAQEhdNE9bQ0BASF0oW0NAQEhdKFtPSF0pW0NASF0oW09IXSlbQ0BIXTRbT0hdKVtDSDJdT0MoPU8pL1tDSF09W0NIXS9jNVtjSF1bY0hdYyhbT0hdKVtjSF1bY0hdNQ==

> <s_epik_cmdline>
J2VwaWtfcHl0aG9uJywgJy1waCcsICc3LjAnLCAnLXRuJywgJzgnLCAnLW1hJywgJzUwMCcsICctaW1hZScsICc8aW5maWxlLm1hZT4nLCAnLW9tYWUnLCAnPG91dGZpbGUubWFlPic=

> <r_epik_Ionization_Penalty>
  0.0375

> <r_epik_Ionization_Penalty_Charging>
  0.0000

> <r_epik_Ionization_Penalty_Neutral>
  0.0375

> <r_epik_State_Penalty>
  0.0286

> <r_epik_Charging_Adjusted_Penalty>
0.0285681

> <i_epik_Tot_Q>
0

> <i_epik_Tot_abs_Q>
0

> <s_epik_Chemistry_Notes>
This compound has an ester and may undergo hydrolysis at high or low pH. This compound contains an acetal/aminal-like group ( X-CH(R)-Y where X, Y are N, S, or O) that may be acid/base labile, releasing an aldehyde.

> <s_lp_Force_Field>
S-OPLS

> <r_lp_Energy>
26.8089

> <b_lp_Chiralities_Consistent>
1

> <s_lp_Variant>
O=C1C(O[C@@H]2O[C@@H]([C@@H](O)[C@H](O)[C@H]2O)COC(/C=C/C3=CC=C(O)C=C3)=O)=C(...-1

> <s_i_glide_gridfile>
glide-grid_1

> <i_i_glide_lignum>
2084

> <i_i_glide_rotatable_bonds>
15

> <r_i_docking_score>
-8.96617888252032

> <r_i_glide_ligand_efficiency>
-0.208515787965589

> <r_i_glide_ligand_efficiency_sa>
-0.730513806202783

> <r_i_glide_ligand_efficiency_ln>
-1.88317622965827

> <r_i_glide_gscore>
-8.99477888252032

> <r_i_glide_lipo>
-3.62622328723032

> <r_i_glide_hbond>
-0.602589358857992

> <r_i_glide_metal>
0

> <r_i_glide_rewards>
-0.133258690511356

> <r_i_glide_evdw>
-47.1143188476562

> <r_i_glide_ecoul>
-17.5967254638672

> <r_i_glide_erotb>
0.362517216042245

> <r_i_glide_esite>
0

> <r_i_glide_emodel>
-93.4589123080734

> <r_i_glide_energy>
-64.7110443115234

> <r_i_glide_einternal>
11.0864763259888

> <i_i_glide_confnum>
231

> <i_i_glide_posenum>
51

> <r_i_glide_eff_state_penalty>
0.0286

> <r_lp_tautomer_probability>
1

> <s_m_subgroup_title>
glide-dock_SP_top1262_2_pv

> <s_m_subgroupid>
glide-dock_SP_top1262_2_pv

> <b_m_subgroup_collapsed>
0

$$$$
CC(N1N=C(CC2=CC=CC3=C2C=CC=C3)C4=C(N)N=CN=C41)(C)C
                    3D
 Schrodinger Suite 2021-3.
  0  0  0     0  0            999 V3000
M  V30 BEGIN CTAB
M  V30 COUNTS 46 49 0 0 0
M  V30 BEGIN ATOM
M  V30 1 N  22.7558 35.5511 83.0529 0
M  V30 2 C  24.1051 35.8305 83.2440 0
M  V30 3 N  25.0084 35.0548 82.6007 0
M  V30 4 C  26.3179 35.3654 82.7767 0
M  V30 5 N  26.8367 36.3735 83.5247 0
M  V30 6 C  25.9110 37.1169 84.1488 0
M  V30 7 C  24.5141 36.9016 84.0526 0
M  V30 8 N  26.0656 38.2188 84.9914 0
M  V30 9 C  27.2759 38.9207 85.5055 0
M  V30 10 C  27.2216 40.4104 85.0809 0
M  V30 11 C  28.5841 38.3079 84.9562 0
M  V30 12 C  27.2878 38.8152 87.0514 0
M  V30 13 N  24.8467 38.6689 85.3916 0
M  V30 14 C  23.9146 37.9258 84.8492 0
M  V30 15 C  22.4385 38.2101 85.0999 0
M  V30 16 C  21.6946 37.2130 86.0054 0
M  V30 17 C  22.3414 36.0842 86.5111 0
M  V30 18 C  21.6801 35.1568 87.3039 0
M  V30 19 C  20.3511 35.3499 87.6432 0
M  V30 20 C  20.3186 37.4362 86.3401 0
M  V30 21 C  19.6580 36.4966 87.1979 0
M  V30 22 C  19.5645 38.5463 85.8623 0
M  V30 23 C  18.2333 38.7120 86.2271 0
M  V30 24 C  17.6142 37.8085 87.0814 0
M  V30 25 C  18.3139 36.7200 87.5804 0
M  V30 26 H  22.0857 35.9790 83.6750 0
M  V30 27 H  22.5072 34.7128 82.5364 0
M  V30 28 H  27.0342 34.7484 82.2515 0
M  V30 29 H  26.3406 40.9219 85.4720 0
M  V30 30 H  28.0928 40.9605 85.4409 0
M  V30 31 H  27.1997 40.5159 83.9959 0
M  V30 32 H  28.6882 37.2611 85.2398 0
M  V30 33 H  28.6356 38.3700 83.8688 0
M  V30 34 H  29.4616 38.8285 85.3448 0
M  V30 35 H  27.2329 37.7770 87.3771 0
M  V30 36 H  28.1959 39.2440 87.4807 0
M  V30 37 H  26.4430 39.3353 87.5043 0
M  V30 38 H  22.3275 39.1973 85.5530 0
M  V30 39 H  21.9136 38.2585 84.1459 0
M  V30 40 H  23.3846 35.9110 86.2987 0
M  V30 41 H  22.2069 34.2939 87.6745 0
M  V30 42 H  19.8473 34.6302 88.2742 0
M  V30 43 H  20.0195 39.2755 85.2086 0
M  V30 44 H  17.6703 39.5573 85.8629 0
M  V30 45 H  16.5820 37.9574 87.3635 0
M  V30 46 H  17.8240 36.0166 88.2394 0
M  V30 END ATOM
M  V30 BEGIN BOND
M  V30 1 1 1 2
M  V30 2 1 1 26
M  V30 3 1 1 27
M  V30 4 2 2 3
M  V30 5 1 2 7
M  V30 6 1 3 4
M  V30 7 2 4 5
M  V30 8 1 4 28
M  V30 9 1 5 6
M  V30 10 2 6 7
M  V30 11 1 6 8
M  V30 12 1 7 14
M  V30 13 1 8 9
M  V30 14 1 8 13
M  V30 15 1 9 10
M  V30 16 1 9 11
M  V30 17 1 9 12
M  V30 18 1 10 29
M  V30 19 1 10 30
M  V30 20 1 10 31
M  V30 21 1 11 32
M  V30 22 1 11 33
M  V30 23 1 11 34
M  V30 24 1 12 35
M  V30 25 1 12 36
M  V30 26 1 12 37
M  V30 27 2 13 14
M  V30 28 1 14 15
M  V30 29 1 15 16
M  V30 30 1 15 38
M  V30 31 1 15 39
M  V30 32 2 16 17
M  V30 33 1 16 20
M  V30 34 1 17 18
M  V30 35 1 17 40
M  V30 36 2 18 19
M  V30 37 1 18 41
M  V30 38 1 19 21
M  V30 39 1 19 42
M  V30 40 2 20 21
M  V30 41 1 20 22
M  V30 42 1 21 25
M  V30 43 2 22 23
M  V30 44 1 22 43
M  V30 45 1 23 24
M  V30 46 1 23 44
M  V30 47 2 24 25
M  V30 48 1 24 45
M  V30 49 1 25 46
M  V30 END BOND
M  V30 END CTAB
M  END
> <s_m_entry_id>
121

> <s_m_entry_name>
result.2753

> <s_m_Source_Path>
D:\OneDrive - zju.edu.cn\DOC\A-Finished\LCK_VS\Planet\LCK-8617

> <s_m_Source_File>
glide-dock_SP_top1262_2_pv.maegz

> <i_m_Source_File_Index>
121

> <PLANET_affinity>
7.302

> <i_lp_mmshare_version>
54117

> <i_f3d_flags>
0

> <s_epik_input>
bjFbY0hdbmMoW05IMl0pYyhjMTIpYyhubjJDKFtDSDNdKShbQ0gzXSlbQ0gzXSlbQ0gyXWMzW2NIXVtjSF1bY0hdYyhjMzQpW2NIXVtjSF1bY0hdW2NIXTQ=

> <s_epik_cmdline>
J2VwaWtfcHl0aG9uJywgJy1waCcsICc3LjAnLCAnLXRuJywgJzgnLCAnLW1hJywgJzUwMCcsICctaW1hZScsICc8aW5maWxlLm1hZT4nLCAnLW9tYWUnLCAnPG91dGZpbGUubWFlPic=

> <r_epik_Ionization_Penalty>
  0.0015

> <r_epik_Ionization_Penalty_Charging>
  0.0000

> <r_epik_Ionization_Penalty_Neutral>
  0.0015

> <r_epik_State_Penalty>
  0.0010

> <r_epik_Charging_Adjusted_Penalty>
0.00101922

> <i_epik_Tot_Q>
0

> <i_epik_Tot_abs_Q>
0

> <s_lp_Force_Field>
S-OPLS

> <r_lp_Energy>
36.3979

> <b_lp_Chiralities_Consistent>
1

> <s_lp_Variant>
CC(N1N=C(CC2=CC=CC3=C2C=CC=C3)C4=C(N)N=CN=C41)(C)C-1

> <s_i_glide_gridfile>
glide-grid_1

> <i_i_glide_lignum>
2249

> <i_i_glide_rotatable_bonds>
3

> <r_i_docking_score>
-8.95169056280822

> <r_i_glide_ligand_efficiency>
-0.358067622512329

> <r_i_glide_ligand_efficiency_sa>
-1.04699607858237

> <r_i_glide_ligand_efficiency_ln>
-2.12181892390442

> <r_i_glide_gscore>
-8.95269056280822

> <r_i_glide_lipo>
-3.16348633030931

> <r_i_glide_hbond>
-0.534798563784931

> <r_i_glide_metal>
0

> <r_i_glide_rewards>
-2.99123147606609

> <r_i_glide_evdw>
-38.223575592041

> <r_i_glide_ecoul>
-3.94596290588379

> <r_i_glide_erotb>
0.239899022836731

> <r_i_glide_esite>
0

> <r_i_glide_emodel>
-64.1587767707591

> <r_i_glide_energy>
-42.1695384979248

> <r_i_glide_einternal>
1.80801951885223

> <i_i_glide_confnum>
1

> <i_i_glide_posenum>
105

> <r_i_glide_eff_state_penalty>
0.001

> <s_m_subgroup_title>
glide-dock_SP_top1262_2_pv

> <s_m_subgroupid>
glide-dock_SP_top1262_2_pv

> <b_m_subgroup_collapsed>
0

$$$$
O=C(C(C1=CN2CCN(C(N3CCCCC3)=O)CC4=CC(F)=CC1=C42)=C5C6=CN=C7C=CC=CN76)NC5=O
                    3D
 Schrodinger Suite 2021-3.
  0  0  0     0  0            999 V3000
M  V30 BEGIN CTAB
M  V30 COUNTS 63 69 0 0 0
M  V30 BEGIN ATOM
M  V30 1 C  19.7321 39.6397 87.0381 0
M  V30 2 C  18.9592 38.5682 87.4898 0
M  V30 3 C  19.3350 37.2505 87.2456 0
M  V30 4 C  20.4779 36.9844 86.4979 0
M  V30 5 N  21.2192 38.0296 86.0004 0
M  V30 6 C  20.8888 39.3717 86.2818 0
M  V30 7 C  22.3205 38.0826 85.1653 0
M  V30 8 C  22.6209 39.4451 85.0791 0
M  V30 9 N  21.7897 40.2248 85.7337 0
M  V30 10 C  22.9483 36.9656 84.4452 0
M  V30 11 C  22.1513 36.0323 83.7076 0
M  V30 12 O  20.9289 35.9606 83.6439 0
M  V30 13 N  23.0206 35.2425 83.0802 0
M  V30 14 C  24.2446 36.6628 84.2495 0
M  V30 15 C  24.2959 35.5482 83.3391 0
M  V30 16 O  25.2580 34.9377 82.8797 0
M  V30 17 C  25.4177 37.3375 84.8234 0
M  V30 18 C  25.3659 37.9841 86.0434 0
M  V30 19 C  26.7976 37.4500 84.3901 0
M  V30 20 C  27.5658 36.9456 83.3241 0
M  V30 21 C  28.9169 37.2648 83.2447 0
M  V30 22 F  29.6804 36.6914 82.2878 0
M  V30 23 C  29.4871 38.1797 84.1237 0
M  V30 24 C  28.7720 38.7598 85.1745 0
M  V30 25 C  27.4517 38.3114 85.3286 0
M  V30 26 N  26.5632 38.5679 86.3576 0
M  V30 27 C  29.3610 39.8612 86.0450 0
M  V30 28 N  28.4072 40.9423 86.3663 0
M  V30 29 C  27.4574 40.6786 87.4722 0
M  V30 30 C  26.8940 39.2446 87.6102 0
M  V30 31 C  28.2050 41.9421 85.4559 0
M  V30 32 O  28.4716 41.7647 84.2582 0
M  V30 33 N  27.6647 43.1210 85.8895 0
M  V30 34 C  27.9062 43.6998 87.2317 0
M  V30 35 C  29.0630 44.7207 87.1231 0
M  V30 36 C  28.7744 45.8012 86.0685 0
M  V30 37 C  28.3914 45.1443 84.7381 0
M  V30 38 C  27.2321 44.1313 84.9030 0
M  V30 39 H  19.4287 40.6581 87.2409 0
M  V30 40 H  18.0547 38.7622 88.0437 0
M  V30 41 H  18.7260 36.4386 87.6208 0
M  V30 42 H  20.8097 35.9856 86.2587 0
M  V30 43 H  23.4297 39.8665 84.4960 0
M  V30 44 H  22.7299 34.4829 82.4784 0
M  V30 45 H  24.5426 38.0788 86.7355 0
M  V30 46 H  27.1512 36.2871 82.5801 0
M  V30 47 H  30.5211 38.4546 83.9746 0
M  V30 48 H  29.6957 39.4159 86.9778 0
M  V30 49 H  30.2699 40.2743 85.6013 0
M  V30 50 H  28.0360 40.8183 88.3859 0
M  V30 51 H  26.6366 41.3963 87.4977 0
M  V30 52 H  27.6116 38.6145 88.1372 0
M  V30 53 H  25.9996 39.2696 88.2340 0
M  V30 54 H  26.9868 44.2204 87.4945 0
M  V30 55 H  28.0339 42.9814 88.0369 0
M  V30 56 H  29.2310 45.1887 88.0916 0
M  V30 57 H  29.9884 44.1987 86.8838 0
M  V30 58 H  29.6447 46.4473 85.9323 0
M  V30 59 H  27.9635 46.4404 86.4074 0
M  V30 60 H  29.2669 44.6392 84.3287 0
M  V30 61 H  28.1147 45.9033 84.0089 0
M  V30 62 H  26.8803 43.6852 83.9715 0
M  V30 63 H  26.3516 44.6274 85.3090 0
M  V30 END ATOM
M  V30 BEGIN BOND
M  V30 1 2 1 2
M  V30 2 1 1 6
M  V30 3 1 1 39
M  V30 4 1 2 3
M  V30 5 1 2 40
M  V30 6 2 3 4
M  V30 7 1 3 41
M  V30 8 1 4 5
M  V30 9 1 4 42
M  V30 10 1 5 6
M  V30 11 1 5 7
M  V30 12 2 6 9
M  V30 13 2 7 8
M  V30 14 1 7 10
M  V30 15 1 8 9
M  V30 16 1 8 43
M  V30 17 1 10 11
M  V30 18 2 10 14
M  V30 19 2 11 12
M  V30 20 1 11 13
M  V30 21 1 13 15
M  V30 22 1 13 44
M  V30 23 1 14 15
M  V30 24 1 14 17
M  V30 25 2 15 16
M  V30 26 2 17 18
M  V30 27 1 17 19
M  V30 28 1 18 26
M  V30 29 1 18 45
M  V30 30 2 19 20
M  V30 31 1 19 25
M  V30 32 1 20 21
M  V30 33 1 20 46
M  V30 34 1 21 22
M  V30 35 2 21 23
M  V30 36 1 23 24
M  V30 37 1 23 47
M  V30 38 2 24 25
M  V30 39 1 24 27
M  V30 40 1 25 26
M  V30 41 1 26 30
M  V30 42 1 27 28
M  V30 43 1 27 48
M  V30 44 1 27 49
M  V30 45 1 28 29
M  V30 46 1 28 31
M  V30 47 1 29 30
M  V30 48 1 29 50
M  V30 49 1 29 51
M  V30 50 1 30 52
M  V30 51 1 30 53
M  V30 52 2 31 32
M  V30 53 1 31 33
M  V30 54 1 33 34
M  V30 55 1 33 38
M  V30 56 1 34 35
M  V30 57 1 34 54
M  V30 58 1 34 55
M  V30 59 1 35 36
M  V30 60 1 35 56
M  V30 61 1 35 57
M  V30 62 1 36 37
M  V30 63 1 36 58
M  V30 64 1 36 59
M  V30 65 1 37 38
M  V30 66 1 37 60
M  V30 67 1 37 61
M  V30 68 1 38 62
M  V30 69 1 38 63
M  V30 END BOND
M  V30 END CTAB
M  END
> <s_m_entry_id>
123

> <s_m_entry_name>
result.2308

> <s_m_Source_Path>
D:\OneDrive - zju.edu.cn\DOC\A-Finished\LCK_VS\Planet\LCK-8617

> <s_m_Source_File>
glide-dock_SP_top1262_2_pv.maegz

> <i_m_Source_File_Index>
123

> <PLANET_affinity>
8.461

> <i_lp_mmshare_version>
54117

> <i_f3d_flags>
0

> <s_epik_input>
W2NIXTFbY0hdW2NIXVtjSF1jKG4xMiluW2NIXWMyQzM9QyhDKD1PKVtOSF1DMz1PKWM0W2NIXW41W0NIMl1bQ0gyXU4oW0NIMl1jKGM1YzQ2KVtjSF1jKEYpW2NIXTYpQyg9TylON1tDSDJdW0NIMl1bQ0gyXVtDSDJdW0NIMl03

> <s_epik_cmdline>
J2VwaWtfcHl0aG9uJywgJy1waCcsICc3LjAnLCAnLXRuJywgJzgnLCAnLW1hJywgJzUwMCcsICctaW1hZScsICc8aW5maWxlLm1hZT4nLCAnLW9tYWUnLCAnPG91dGZpbGUubWFlPic=

> <r_epik_Ionization_Penalty>
  0.2426

> <r_epik_Ionization_Penalty_Charging>
  0.0005

> <r_epik_Ionization_Penalty_Neutral>
  0.2421

> <r_epik_State_Penalty>
  0.1630

> <r_epik_Charging_Adjusted_Penalty>
0.16346

> <i_epik_Tot_Q>
0

> <i_epik_Tot_abs_Q>
0

> <s_lp_Force_Field>
S-OPLS

> <r_lp_Energy>
47.9854

> <b_lp_Chiralities_Consistent>
1

> <s_lp_Variant>
O=C(C(C1=CN2CCN(C(N3CCCCC3)=O)CC4=CC(F)=CC1=C42)=C5C6=CN=C7C=CC=CN76)NC5=O-1

> <s_i_glide_gridfile>
glide-grid_1

> <i_i_glide_lignum>
827

> <i_i_glide_rotatable_bonds>
4

> <r_i_docking_score>
-8.94254527085016

> <r_i_glide_ligand_efficiency>
-0.235330138706583

> <r_i_glide_ligand_efficiency_sa>
-0.7911741378508

> <r_i_glide_ligand_efficiency_ln>
-1.92827582342487

> <r_i_glide_gscore>
-9.10554527085016

> <r_i_glide_lipo>
-2.5994771848106

> <r_i_glide_hbond>
-0.677089024104149

> <r_i_glide_metal>
0

> <r_i_glide_rewards>
-2.42206982303467

> <r_i_glide_evdw>
-46.7441253662109

> <r_i_glide_ecoul>
-8.54245471954346

> <r_i_glide_erotb>
0.218509251653467

> <r_i_glide_esite>
-0.00684401431214559

> <r_i_glide_emodel>
-84.2018005224079

> <r_i_glide_energy>
-55.2865800857544

> <r_i_glide_einternal>
4.51530790328979

> <i_i_glide_confnum>
53

> <i_i_glide_posenum>
137

> <r_i_glide_eff_state_penalty>
0.163

> <s_m_subgroup_title>
glide-dock_SP_top1262_2_pv

> <s_m_subgroupid>
glide-dock_SP_top1262_2_pv

> <b_m_subgroup_collapsed>
0

$$$$
O=C(C1=CC(OCCN)=CC(C(NC2=NC3=C(C(OCCN)=C2)C=CC=C3)=O)=N1)NC4=CC(OCCN)=C5C=CC=...
                    3D
 Schrodinger Suite 2021-3.
  0  0  0     0  0            999 V3000
M  V30 BEGIN CTAB
M  V30 COUNTS 80 84 0 0 0
M  V30 BEGIN ATOM
M  V30 1 N  22.0829 43.0531 86.4625 0 CHG=1
M  V30 2 C  21.5419 41.8060 87.1728 0
M  V30 3 C  20.4614 41.1287 86.3013 0
M  V30 4 O  20.2217 39.7926 86.7173 0
M  V30 5 C  21.0826 38.7965 86.3645 0
M  V30 6 C  22.2478 38.9416 85.6795 0
M  V30 7 C  23.1874 37.8727 85.4223 0
M  V30 8 N  22.7539 36.6513 85.9551 0
M  V30 9 C  21.5731 36.4089 86.6855 0
M  V30 10 C  20.6821 37.4750 86.8817 0
M  V30 11 C  21.2827 35.1502 87.1965 0
M  V30 12 C  20.0831 34.9389 87.8704 0
M  V30 13 C  19.1740 35.9827 88.0429 0
M  V30 14 C  19.4720 37.2530 87.5534 0
M  V30 15 N  24.3181 38.0434 84.8444 0
M  V30 16 C  25.2380 37.0462 84.5045 0
M  V30 17 O  25.0042 35.8334 84.5042 0
M  V30 18 C  26.5958 37.5762 84.1041 0
M  V30 19 C  27.6406 36.7567 83.6437 0
M  V30 20 C  28.9214 37.2847 83.4378 0
M  V30 21 O  29.9223 36.4304 83.0138 0
M  V30 22 C  31.2675 36.7401 83.3899 0
M  V30 23 C  32.2073 35.5419 83.1438 0
M  V30 24 N  32.4833 35.3365 81.6435 0 CHG=1
M  V30 25 C  29.1112 38.6640 83.6412 0
M  V30 26 C  28.0335 39.4791 84.0163 0
M  V30 27 N  26.8446 38.8940 84.2500 0 CHG=1
M  V30 28 C  28.1436 40.9802 84.0975 0
M  V30 29 O  29.0274 41.5569 83.4631 0
M  V30 30 N  27.1327 41.6074 84.8323 0
M  V30 31 C  27.0767 42.8578 85.1243 0
M  V30 32 N  28.0963 43.7874 84.8469 0
M  V30 33 C  25.9506 43.4778 85.7945 0
M  V30 34 C  25.8781 44.7881 86.1194 0
M  V30 35 O  24.7439 45.3261 86.6473 0
M  V30 36 C  23.9136 45.9755 85.6828 0
M  V30 37 C  23.0895 47.1595 86.2319 0
M  V30 38 N  22.0787 46.7160 87.2977 0 CHG=1
M  V30 39 C  27.0040 45.7073 85.8288 0
M  V30 40 C  28.1174 45.1629 85.1649 0
M  V30 41 C  27.0080 47.0636 86.1758 0
M  V30 42 C  28.0995 47.8682 85.8442 0
M  V30 43 C  29.1970 47.3205 85.1773 0
M  V30 44 C  29.2105 45.9676 84.8439 0
M  V30 45 H  22.8086 43.4935 87.0104 0
M  V30 46 H  22.4545 42.8217 85.5510 0
M  V30 47 H  21.1501 42.1636 88.1255 0
M  V30 48 H  22.4224 41.1843 87.3419 0
M  V30 49 H  20.6691 41.1566 85.2288 0
M  V30 50 H  19.5112 41.6416 86.4436 0
M  V30 51 H  22.5283 39.9159 85.3189 0
M  V30 52 H  21.9677 34.3298 87.0654 0
M  V30 53 H  19.8568 33.9566 88.2489 0
M  V30 54 H  18.2434 35.8066 88.5638 0
M  V30 55 H  18.7622 38.0543 87.7005 0
M  V30 56 H  27.4784 35.7002 83.4864 0
M  V30 57 H  31.6260 37.6212 82.8506 0
M  V30 58 H  31.3014 36.9900 84.4528 0
M  V30 59 H  33.1947 35.6890 83.5852 0
M  V30 60 H  31.7883 34.5989 83.4998 0
M  V30 61 H  33.0940 34.5436 81.5011 0
M  V30 62 H  31.6332 35.1573 81.1167 0
M  V30 63 H  30.0747 39.1174 83.4553 0
M  V30 64 H  28.9134 43.4132 84.3761 0
M  V30 65 H  25.0932 42.8643 86.0116 0
M  V30 66 H  24.4833 46.3567 84.8437 0
M  V30 67 H  23.2830 45.2114 85.2436 0
M  V30 68 H  23.7099 47.9132 86.7185 0
M  V30 69 H  22.4828 47.6302 85.4561 0
M  V30 70 H  21.5700 47.5107 87.6569 0
M  V30 71 H  21.3855 46.0855 86.9034 0
M  V30 72 H  26.1719 47.5002 86.6991 0
M  V30 73 H  28.1009 48.9151 86.1114 0
M  V30 74 H  30.0446 47.9398 84.9218 0
M  V30 75 H  30.0758 45.5562 84.3432 0
M  V30 76 H  21.3242 43.7172 86.3308 0
M  V30 77 H  32.9251 36.1520 81.2449 0
M  V30 78 H  26.0802 39.4819 84.5622 0
M  V30 79 H  23.3760 35.8763 85.7770 0
M  V30 80 H  22.5467 46.2611 88.0680 0
M  V30 END ATOM
M  V30 BEGIN BOND
M  V30 1 1 1 2
M  V30 2 1 1 45
M  V30 3 1 1 46
M  V30 4 1 1 76
M  V30 5 1 2 3
M  V30 6 1 2 47
M  V30 7 1 2 48
M  V30 8 1 3 4
M  V30 9 1 3 49
M  V30 10 1 3 50
M  V30 11 1 4 5
M  V30 12 2 5 6
M  V30 13 1 5 10
M  V30 14 1 6 7
M  V30 15 1 6 51
M  V30 16 1 7 8
M  V30 17 2 7 15
M  V30 18 1 8 9
M  V30 19 1 8 79
M  V30 20 2 9 10
M  V30 21 1 9 11
M  V30 22 1 10 14
M  V30 23 2 11 12
M  V30 24 1 11 52
M  V30 25 1 12 13
M  V30 26 1 12 53
M  V30 27 2 13 14
M  V30 28 1 13 54
M  V30 29 1 14 55
M  V30 30 1 15 16
M  V30 31 2 16 17
M  V30 32 1 16 18
M  V30 33 2 18 19
M  V30 34 1 18 27
M  V30 35 1 19 20
M  V30 36 1 19 56
M  V30 37 1 20 21
M  V30 38 2 20 25
M  V30 39 1 21 22
M  V30 40 1 22 23
M  V30 41 1 22 57
M  V30 42 1 22 58
M  V30 43 1 23 24
M  V30 44 1 23 59
M  V30 45 1 23 60
M  V30 46 1 24 61
M  V30 47 1 24 62
M  V30 48 1 24 77
M  V30 49 1 25 26
M  V30 50 1 25 63
M  V30 51 2 26 27
M  V30 52 1 26 28
M  V30 53 1 27 78
M  V30 54 2 28 29
M  V30 55 1 28 30
M  V30 56 2 30 31
M  V30 57 1 31 32
M  V30 58 1 31 33
M  V30 59 1 32 40
M  V30 60 1 32 64
M  V30 61 2 33 34
M  V30 62 1 33 65
M  V30 63 1 34 35
M  V30 64 1 34 39
M  V30 65 1 35 36
M  V30 66 1 36 37
M  V30 67 1 36 66
M  V30 68 1 36 67
M  V30 69 1 37 38
M  V30 70 1 37 68
M  V30 71 1 37 69
M  V30 72 1 38 70
M  V30 73 1 38 71
M  V30 74 1 38 80
M  V30 75 2 39 40
M  V30 76 1 39 41
M  V30 77 1 40 44
M  V30 78 2 41 42
M  V30 79 1 41 72
M  V30 80 1 42 43
M  V30 81 1 42 73
M  V30 82 2 43 44
M  V30 83 1 43 74
M  V30 84 1 44 75
M  V30 END BOND
M  V30 END CTAB
M  END
> <s_m_entry_id>
124

> <s_m_entry_name>
result.4620

> <s_m_Source_Path>
D:\OneDrive - zju.edu.cn\DOC\A-Finished\LCK_VS\Planet\LCK-8617

> <s_m_Source_File>
glide-dock_SP_top1262_2_pv.maegz

> <i_m_Source_File_Index>
124

> <PLANET_affinity>
10.538

> <i_lp_mmshare_version>
54117

> <i_f3d_flags>
0

> <s_epik_input>
W2NIXTFbY0hdW2NIXVtjSF1jKGMxMiljKE9bQ0gyXVtDSDJdW05IMl0pW2NIXWMobjIpW05IXUMoPU8pYzNbY0hdYyhPW0NIMl1bQ0gyXVtOSDJdKVtjSF1jKG4zKUMoPU8pL049YyhcW25IXWMoYzQ1KVtjSF1bY0hdW2NIXVtjSF01KVtjSF1jNE9bQ0gyXVtDSDJdW05IMl0=

> <s_epik_cmdline>
J2VwaWtfcHl0aG9uJywgJy1waCcsICc3LjAnLCAnLXRuJywgJzgnLCAnLW1hJywgJzUwMCcsICctaW1hZScsICc8aW5maWxlLm1hZT4nLCAnLW9tYWUnLCAnPG91dGZpbGUubWFlPic=

> <r_epik_Ionization_Penalty>
  0.0729

> <r_epik_Ionization_Penalty_Charging>
  0.0729

> <r_epik_Ionization_Penalty_Neutral>
  0.0000

> <r_epik_State_Penalty>
  0.0280

> <r_epik_Charging_Adjusted_Penalty>
0.100896

> <i_epik_Tot_Q>
4

> <i_epik_Tot_abs_Q>
4

> <s_lp_Force_Field>
S-OPLS

> <r_lp_Energy>
69.5163

> <b_lp_Chiralities_Consistent>
1

> <s_lp_Variant>
O=C(C1=CC(OCCN)=CC(C(NC2=NC3=C(C(OCCN)=C2)C=CC=C3)=O)=N1)NC4=CC(OCCN)=C5C=CC=...-1

> <s_i_glide_gridfile>
glide-grid_1

> <i_i_glide_lignum>
203

> <i_i_glide_rotatable_bonds>
13

> <r_i_docking_score>
-8.94080523051611

> <r_i_glide_ligand_efficiency>
-0.203200118875366

> <r_i_glide_ligand_efficiency_sa>
-0.717367200504822

> <r_i_glide_ligand_efficiency_ln>
-1.86882333574925

> <r_i_glide_gscore>
-8.96880523051611

> <r_i_glide_lipo>
-2.67127262637145

> <r_i_glide_hbond>
-0.381301561727624

> <r_i_glide_metal>
0

> <r_i_glide_rewards>
-0.156296629218728

> <r_i_glide_evdw>
-46.6662139892578

> <r_i_glide_ecoul>
-24.4359188079834

> <r_i_glide_erotb>
0.464925186200417

> <r_i_glide_esite>
-0.226161078738327

> <r_i_glide_emodel>
-119.478229464287

> <r_i_glide_energy>
-71.1021327972412

> <r_i_glide_einternal>
18.9229106903076

> <i_i_glide_confnum>
686

> <i_i_glide_posenum>
108

> <r_i_glide_eff_state_penalty>
0.028

> <s_m_subgroup_title>
glide-dock_SP_top1262_2_pv

> <s_m_subgroupid>
glide-dock_SP_top1262_2_pv

> <b_m_subgroup_collapsed>
0

$$$$
O=C(C1(N)CCNCC1)NCCCN2C3=CC=C(CN4CCN(CC5=C(Cl)C=CC=C5Cl)CC4)C=C3C(C6=CC=C(OC(...
                    3D
 Schrodinger Suite 2021-3.
  0  0  0     0  0            999 V3000
M  V30 BEGIN CTAB
M  V30 COUNTS 92 97 0 0 0
M  V30 BEGIN ATOM
M  V30 1 C  34.2164 36.3471 82.9107 0
M  V30 2 C  34.5066 35.6599 84.2679 0
M  V30 3 N  34.7281 34.1494 84.0435 0 CHG=1
M  V30 4 C  33.5585 33.4727 83.2997 0
M  V30 5 C  33.3437 34.1974 81.9505 0
M  V30 6 C  33.0618 35.7230 82.0671 0
M  V30 7 N  33.0553 36.3349 80.7436 0
M  V30 8 C  31.6590 35.9426 82.7399 0
M  V30 9 O  31.5679 36.4547 83.8547 0
M  V30 10 N  30.5699 35.5569 82.0440 0
M  V30 11 C  29.1796 35.6056 82.4961 0
M  V30 12 C  28.6619 37.0042 82.9081 0
M  V30 13 C  28.6816 37.2991 84.4322 0
M  V30 14 N  27.3720 37.6540 84.9987 0
M  V30 15 C  26.1511 37.1491 84.6146 0
M  V30 16 C  25.1175 37.6811 85.3637 0
M  V30 17 C  23.6572 37.4592 85.1122 0
M  V30 18 C  23.2404 36.3579 84.3576 0
M  V30 19 C  21.8985 36.2011 84.0287 0
M  V30 20 C  20.9438 37.1125 84.4785 0
M  V30 21 O  19.6470 36.9084 84.0441 0
M  V30 22 C  18.6338 37.8964 84.2503 0
M  V30 23 F  19.0409 39.1478 84.0450 0
M  V30 24 F  17.6855 37.6728 83.3422 0
M  V30 25 F  18.1084 37.7837 85.4710 0
M  V30 26 C  21.3486 38.1716 85.3031 0
M  V30 27 C  22.6951 38.3541 85.5910 0
M  V30 28 C  25.7624 38.4907 86.3707 0
M  V30 29 C  27.1689 38.4650 86.1065 0
M  V30 30 C  25.3084 39.2494 87.4647 0
M  V30 31 C  26.2062 40.0086 88.2111 0
M  V30 32 C  27.5730 39.9356 87.9468 0
M  V30 33 C  28.0832 39.1759 86.8968 0
M  V30 34 C  25.6670 40.9665 89.2791 0
M  V30 35 N  25.4510 42.3522 88.8123 0 CFG=1
M  V30 36 C  24.5399 42.4183 87.6511 0
M  V30 37 C  24.2794 43.8687 87.1806 0
M  V30 38 N  25.6494 44.4992 86.8364 0 CHG=1
M  V30 39 C  26.5234 44.4906 88.1120 0
M  V30 40 C  26.7283 43.0189 88.5148 0
M  V30 41 C  25.5352 45.9022 86.2007 0
M  V30 42 C  26.8859 46.4561 85.7216 0
M  V30 43 C  27.6371 45.7529 84.7580 0
M  V30 44 Cl 27.0627 44.2855 84.0436 0
M  V30 45 C  28.8827 46.2289 84.3522 0
M  V30 46 C  29.3920 47.4120 84.8778 0
M  V30 47 C  28.6505 48.1253 85.8180 0
M  V30 48 C  27.4061 47.6546 86.2447 0
M  V30 49 Cl 26.5569 48.5886 87.4285 0
M  V30 50 H  33.9651 37.3894 83.1134 0
M  V30 51 H  35.1093 36.4849 82.2970 0
M  V30 52 H  33.6871 35.7363 84.9834 0
M  V30 53 H  35.4115 36.0349 84.7453 0
M  V30 54 H  34.8767 33.7044 84.9566 0
M  V30 55 H  32.6908 33.5271 83.9635 0
M  V30 56 H  33.8383 32.4260 83.1770 0
M  V30 57 H  34.1260 34.0025 81.2167 0
M  V30 58 H  32.5040 33.7195 81.4433 0
M  V30 59 H  32.4253 35.8300 80.1252 0
M  V30 60 H  32.7414 37.2950 80.7868 0
M  V30 61 H  30.7147 35.1587 81.1215 0
M  V30 62 H  28.5904 35.2590 81.6479 0
M  V30 63 H  29.0008 34.8579 83.2669 0
M  V30 64 H  29.2891 37.7601 82.4435 0
M  V30 65 H  27.6795 37.1580 82.4662 0
M  V30 66 H  29.1023 36.4743 85.0032 0
M  V30 67 H  29.3480 38.1467 84.6029 0
M  V30 68 H  26.1016 36.4598 83.7841 0
M  V30 69 H  23.9533 35.6393 83.9835 0
M  V30 70 H  21.6106 35.3733 83.3974 0
M  V30 71 H  20.6437 38.8855 85.6983 0
M  V30 72 H  22.9677 39.2363 86.1411 0
M  V30 73 H  24.2615 39.2863 87.7191 0
M  V30 74 H  28.2662 40.5081 88.5483 0
M  V30 75 H  29.1480 39.1560 86.7115 0
M  V30 76 H  24.7249 40.5759 89.6696 0
M  V30 77 H  26.3373 40.9639 90.1405 0
M  V30 78 H  24.9378 41.8465 86.8108 0
M  V30 79 H  23.5884 41.9546 87.9153 0
M  V30 80 H  23.8059 44.4856 87.9469 0
M  V30 81 H  23.6739 43.8992 86.2719 0
M  V30 82 H  26.0098 45.0770 88.8769 0
M  V30 83 H  27.4725 44.9691 87.8663 0
M  V30 84 H  27.3748 42.9751 89.3932 0
M  V30 85 H  27.2590 42.5067 87.7115 0
M  V30 86 H  24.8518 45.7833 85.3541 0
M  V30 87 H  25.0335 46.5145 86.9507 0
M  V30 88 H  29.4657 45.6735 83.6312 0
M  V30 89 H  30.3598 47.7646 84.5563 0
M  V30 90 H  29.0483 49.0419 86.2240 0
M  V30 91 H  35.5813 34.0078 83.5209 0
M  V30 92 H  26.0992 43.9030 86.1516 0
M  V30 END ATOM
M  V30 BEGIN BOND
M  V30 1 1 1 2
M  V30 2 1 1 6
M  V30 3 1 1 50
M  V30 4 1 1 51
M  V30 5 1 2 3
M  V30 6 1 2 52
M  V30 7 1 2 53
M  V30 8 1 3 4
M  V30 9 1 3 54
M  V30 10 1 3 91
M  V30 11 1 4 5
M  V30 12 1 4 55
M  V30 13 1 4 56
M  V30 14 1 5 6
M  V30 15 1 5 57
M  V30 16 1 5 58
M  V30 17 1 6 7
M  V30 18 1 6 8
M  V30 19 1 7 59
M  V30 20 1 7 60
M  V30 21 2 8 9
M  V30 22 1 8 10
M  V30 23 1 10 11
M  V30 24 1 10 61
M  V30 25 1 11 12
M  V30 26 1 11 62
M  V30 27 1 11 63
M  V30 28 1 12 13
M  V30 29 1 12 64
M  V30 30 1 12 65
M  V30 31 1 13 14
M  V30 32 1 13 66
M  V30 33 1 13 67
M  V30 34 1 14 15
M  V30 35 1 14 29
M  V30 36 2 15 16
M  V30 37 1 15 68
M  V30 38 1 16 17
M  V30 39 1 16 28
M  V30 40 2 17 18
M  V30 41 1 17 27
M  V30 42 1 18 19
M  V30 43 1 18 69
M  V30 44 2 19 20
M  V30 45 1 19 70
M  V30 46 1 20 21
M  V30 47 1 20 26
M  V30 48 1 21 22
M  V30 49 1 22 23
M  V30 50 1 22 24
M  V30 51 1 22 25
M  V30 52 2 26 27
M  V30 53 1 26 71
M  V30 54 1 27 72
M  V30 55 2 28 29
M  V30 56 1 28 30
M  V30 57 1 29 33
M  V30 58 2 30 31
M  V30 59 1 30 73
M  V30 60 1 31 32
M  V30 61 1 31 34
M  V30 62 2 32 33
M  V30 63 1 32 74
M  V30 64 1 33 75
M  V30 65 1 34 35
M  V30 66 1 34 76
M  V30 67 1 34 77
M  V30 68 1 35 36
M  V30 69 1 35 40
M  V30 70 1 36 37
M  V30 71 1 36 78
M  V30 72 1 36 79
M  V30 73 1 37 38
M  V30 74 1 37 80
M  V30 75 1 37 81
M  V30 76 1 38 39
M  V30 77 1 38 41
M  V30 78 1 38 92
M  V30 79 1 39 40
M  V30 80 1 39 82
M  V30 81 1 39 83
M  V30 82 1 40 84
M  V30 83 1 40 85
M  V30 84 1 41 42
M  V30 85 1 41 86
M  V30 86 1 41 87
M  V30 87 2 42 43
M  V30 88 1 42 48
M  V30 89 1 43 44
M  V30 90 1 43 45
M  V30 91 2 45 46
M  V30 92 1 45 88
M  V30 93 1 46 47
M  V30 94 1 46 89
M  V30 95 2 47 48
M  V30 96 1 47 90
M  V30 97 1 48 49
M  V30 END BOND
M  V30 END CTAB
M  END
> <s_m_entry_id>
126

> <s_m_entry_name>
result.641

> <s_m_Source_Path>
D:\OneDrive - zju.edu.cn\DOC\A-Finished\LCK_VS\Planet\LCK-8617

> <s_m_Source_File>
glide-dock_SP_top1262_2_pv.maegz

> <i_m_Source_File_Index>
126

> <PLANET_affinity>
7.96

> <i_lp_mmshare_version>
54117

> <i_f3d_flags>
0

> <s_epik_input>
W0NIMl0xW0NIMl1bTkhdW0NIMl1bQ0gyXUMxKFtOSDJdKUMoPU8pW05IXVtDSDJdW0NIMl1bQ0gyXW4oW2NIXWMyLWMzW2NIXVtjSF1jKE9DKEYpKEYpRilbY0hdW2NIXTMpYyhjMjQpW2NIXVtjSF1jKFtjSF00KVtDSDJdTjVbQ0gyXVtDSDJdTihbQ0gyXVtDSDJdNSlbQ0gyXWM2YyhDbClbY0hdW2NIXVtjSF1jNkNs

> <s_epik_cmdline>
J2VwaWtfcHl0aG9uJywgJy1waCcsICc3LjAnLCAnLXRuJywgJzgnLCAnLW1hJywgJzUwMCcsICctaW1hZScsICc8aW5maWxlLm1hZT4nLCAnLW9tYWUnLCAnPG91dGZpbGUubWFlPic=

> <r_epik_Ionization_Penalty>
  0.0818

> <r_epik_Ionization_Penalty_Charging>
  0.0219

> <r_epik_Ionization_Penalty_Neutral>
  0.0599

> <r_epik_State_Penalty>
  0.4983

> <r_epik_Charging_Adjusted_Penalty>
0.52026

> <i_epik_Tot_Q>
2

> <i_epik_Tot_abs_Q>
2

> <s_lp_Force_Field>
S-OPLS

> <r_lp_Energy>
76.9665

> <b_lp_Chiralities_Consistent>
1

> <s_lp_Variant>
O=C(C1(N)CCNCC1)NCCCN2C3=CC=C(CN4CCN(CC5=C(Cl)C=CC=C5Cl)CC4)C=C3C(C6=CC=C(OC(...-2

> <s_i_glide_gridfile>
glide-grid_1

> <i_i_glide_lignum>
1337

> <i_i_glide_rotatable_bonds>
13

> <r_i_docking_score>
-8.93543562214766

> <r_i_glide_ligand_efficiency>
-0.182355829023422

> <r_i_glide_ligand_efficiency_sa>
-0.667295725535714

> <r_i_glide_ligand_efficiency_ln>
-1.82660749529144

> <r_i_glide_gscore>
-9.43373562214766

> <r_i_glide_lipo>
-2.85742845660913

> <r_i_glide_hbond>
-0.878694192216229

> <r_i_glide_metal>
0

> <r_i_glide_rewards>
-1.15460164052318

> <r_i_glide_evdw>
-44.0327339172363

> <r_i_glide_ecoul>
-16.7912349700928

> <r_i_glide_erotb>
0.274397967124669

> <r_i_glide_esite>
-0.0970873585480593

> <r_i_glide_emodel>
-100.428850904893

> <r_i_glide_energy>
-60.8239688873291

> <r_i_glide_einternal>
17.2854995727539

> <i_i_glide_confnum>
526

> <i_i_glide_posenum>
299

> <r_i_glide_eff_state_penalty>
0.4983

> <s_m_subgroup_title>
glide-dock_SP_top1262_2_pv

> <s_m_subgroupid>
glide-dock_SP_top1262_2_pv

> <b_m_subgroup_collapsed>
0

$$$$
O=S(C1=CC=C(CNC2=NN3C(C4=CC(OC)=C(C=C4)OC)=CN=C3C=C2)C=C1)(N)=O
                    3D
 Schrodinger Suite 2021-3.
  0  0  0     0  0            999 V3000
M  V30 BEGIN CTAB
M  V30 COUNTS 52 55 0 0 0
M  V30 BEGIN ATOM
M  V30 1 O  22.0526 41.9544 83.7808 0
M  V30 2 S  22.0834 41.9112 85.2467 0
M  V30 3 O  21.0791 41.1575 86.0077 0
M  V30 4 N  22.0830 43.5561 85.8250 0
M  V30 5 C  23.6788 41.2829 85.7306 0
M  V30 6 C  23.8087 40.5866 86.9326 0
M  V30 7 C  25.0332 40.0259 87.2753 0
M  V30 8 C  26.1246 40.1567 86.4148 0
M  V30 9 C  26.0051 40.9120 85.2415 0
M  V30 10 C  24.7796 41.4710 84.8946 0
M  V30 11 C  27.4161 39.4157 86.7552 0
M  V30 12 N  28.0802 38.8232 85.5913 0
M  V30 13 C  27.4747 37.8663 84.7599 0
M  V30 14 N  26.1559 37.5545 84.9199 0
M  V30 15 C  28.2811 37.2932 83.7753 0
M  V30 16 C  27.7542 36.3451 82.8989 0
M  V30 17 C  26.3990 36.0128 83.0330 0
M  V30 18 N  25.6627 36.6569 84.0450 0
M  V30 19 N  25.6350 35.1548 82.3289 0
M  V30 20 C  24.4392 35.2914 82.8435 0
M  V30 21 C  24.3560 36.2104 83.8950 0
M  V30 22 C  23.1279 36.6261 84.6541 0
M  V30 23 C  21.8878 36.3967 84.0443 0
M  V30 24 C  20.6957 36.7563 84.6682 0
M  V30 25 O  19.5090 36.4611 84.0435 0
M  V30 26 C  18.7359 37.5871 83.6331 0
M  V30 27 C  20.7114 37.3259 85.9418 0
M  V30 28 C  21.9486 37.5500 86.5697 0
M  V30 29 C  23.1428 37.2092 85.9262 0
M  V30 30 O  19.4758 37.6106 86.4867 0
M  V30 31 C  19.3831 37.9905 87.8377 0
M  V30 32 H  22.0940 44.2418 85.0571 0
M  V30 33 H  21.2901 43.7617 86.4445 0
M  V30 34 H  22.9590 40.4543 87.5862 0
M  V30 35 H  25.1187 39.4537 88.1877 0
M  V30 36 H  26.8485 41.0290 84.5771 0
M  V30 37 H  24.6807 42.0256 83.9713 0
M  V30 38 H  28.1045 40.1046 87.2459 0
M  V30 39 H  27.2066 38.6162 87.4680 0
M  V30 40 H  29.0809 38.9355 85.5214 0
M  V30 41 H  29.3210 37.5740 83.6871 0
M  V30 42 H  28.3629 35.8852 82.1314 0
M  V30 43 H  23.6083 34.7273 82.4427 0
M  V30 44 H  21.8288 35.9414 83.0667 0
M  V30 45 H  17.9840 37.2698 82.9114 0
M  V30 46 H  18.1999 38.0455 84.4635 0
M  V30 47 H  19.3490 38.3522 83.1551 0
M  V30 48 H  22.0012 37.9881 87.5541 0
M  V30 49 H  24.0774 37.3887 86.4356 0
M  V30 50 H  18.3407 38.1804 88.0950 0
M  V30 51 H  19.7391 37.1583 88.4440 0
M  V30 52 H  19.9533 38.8970 88.0435 0
M  V30 END ATOM
M  V30 BEGIN BOND
M  V30 1 2 1 2
M  V30 2 2 2 3
M  V30 3 1 2 4
M  V30 4 1 2 5
M  V30 5 1 4 32
M  V30 6 1 4 33
M  V30 7 2 5 6
M  V30 8 1 5 10
M  V30 9 1 6 7
M  V30 10 1 6 34
M  V30 11 2 7 8
M  V30 12 1 7 35
M  V30 13 1 8 9
M  V30 14 1 8 11
M  V30 15 2 9 10
M  V30 16 1 9 36
M  V30 17 1 10 37
M  V30 18 1 11 12
M  V30 19 1 11 38
M  V30 20 1 11 39
M  V30 21 1 12 13
M  V30 22 1 12 40
M  V30 23 2 13 14
M  V30 24 1 13 15
M  V30 25 1 14 18
M  V30 26 2 15 16
M  V30 27 1 15 41
M  V30 28 1 16 17
M  V30 29 1 16 42
M  V30 30 1 17 18
M  V30 31 2 17 19
M  V30 32 1 18 21
M  V30 33 1 19 20
M  V30 34 2 20 21
M  V30 35 1 20 43
M  V30 36 1 21 22
M  V30 37 2 22 23
M  V30 38 1 22 29
M  V30 39 1 23 24
M  V30 40 1 23 44
M  V30 41 1 24 25
M  V30 42 2 24 27
M  V30 43 1 25 26
M  V30 44 1 26 45
M  V30 45 1 26 46
M  V30 46 1 26 47
M  V30 47 1 27 28
M  V30 48 1 27 30
M  V30 49 2 28 29
M  V30 50 1 28 48
M  V30 51 1 29 49
M  V30 52 1 30 31
M  V30 53 1 31 50
M  V30 54 1 31 51
M  V30 55 1 31 52
M  V30 END BOND
M  V30 END CTAB
M  END
> <s_m_entry_id>
129

> <s_m_entry_name>
result.7809

> <s_m_Source_Path>
D:\OneDrive - zju.edu.cn\DOC\A-Finished\LCK_VS\Planet\LCK-8617

> <s_m_Source_File>
glide-dock_SP_top1262_2_pv.maegz

> <i_m_Source_File_Index>
129

> <PLANET_affinity>
7.972

> <i_lp_mmshare_version>
54117

> <i_f3d_flags>
0

> <s_epik_input>
Tz1TKD1PKShbTkgyXSljMVtjSF1bY0hdYyhbY0hdW2NIXTEpW0NIMl1bTkhdYyhbY0hdW2NIXTIpbm4oYzIzKWMoW2NIXW4zKS1jNFtjSF1jKE9bQ0gzXSljKFtjSF1bY0hdNClPW0NIM10=

> <s_epik_cmdline>
J2VwaWtfcHl0aG9uJywgJy1waCcsICc3LjAnLCAnLXRuJywgJzgnLCAnLW1hJywgJzUwMCcsICctaW1hZScsICc8aW5maWxlLm1hZT4nLCAnLW9tYWUnLCAnPG91dGZpbGUubWFlPic=

> <r_epik_Ionization_Penalty>
  0.0262

> <r_epik_Ionization_Penalty_Charging>
  0.0000

> <r_epik_Ionization_Penalty_Neutral>
  0.0262

> <r_epik_State_Penalty>
  0.0212

> <r_epik_Charging_Adjusted_Penalty>
0.0211565

> <i_epik_Tot_Q>
0

> <i_epik_Tot_abs_Q>
0

> <s_lp_Force_Field>
S-OPLS

> <r_lp_Energy>
36.323

> <b_lp_Chiralities_Consistent>
1

> <s_lp_Variant>
O=S(C1=CC=C(CNC2=NN3C(C4=CC(OC)=C(C=C4)OC)=CN=C3C=C2)C=C1)(N)=O-1

> <s_i_glide_gridfile>
glide-grid_1

> <i_i_glide_lignum>
1317

> <i_i_glide_rotatable_bonds>
7

> <r_i_docking_score>
-8.92838027088153

> <r_i_glide_ligand_efficiency>
-0.28801226680263

> <r_i_glide_ligand_efficiency_sa>
-0.90475616154953

> <r_i_glide_ligand_efficiency_ln>
-2.01362337307833

> <r_i_glide_gscore>
-8.94958027088153

> <r_i_glide_lipo>
-2.53535549813023

> <r_i_glide_hbond>
-1.07165604630268

> <r_i_glide_metal>
0

> <r_i_glide_rewards>
-1.89160999177395

> <r_i_glide_evdw>
-41.6665306091309

> <r_i_glide_ecoul>
-11.047191619873

> <r_i_glide_erotb>
0.413329399419809

> <r_i_glide_esite>
-0.123882860656988

> <r_i_glide_emodel>
-78.3051583438187

> <r_i_glide_energy>
-52.7137222290039

> <r_i_glide_einternal>
7.29811096191406

> <i_i_glide_confnum>
40

> <i_i_glide_posenum>
81

> <r_i_glide_eff_state_penalty>
0.0212

> <r_lp_tautomer_probability>
1

> <s_m_subgroup_title>
glide-dock_SP_top1262_2_pv

> <s_m_subgroupid>
glide-dock_SP_top1262_2_pv

> <b_m_subgroup_collapsed>
0

$$$$
CN[C@@H](C)C(N[C@H](C(N1[C@H](C(N[C@H]2C3=CC=CC=C3C[C@H]2OCC#CC#CCO[C@H]4[C@@...
                    3D
 Schrodinger Suite 2021-3.
  0  0  0     0  0            999 V3000
M  V30 BEGIN CTAB
M  V30 COUNTS 154 161 0 0 0
M  V30 BEGIN ATOM
M  V30 1 C  19.8037 40.1089 86.3016 0
M  V30 2 C  18.4982 39.3001 86.0941 0
M  V30 3 C  18.7425 37.7734 86.1591 0
M  V30 4 C  19.5663 37.3527 87.3980 0
M  V30 5 C  20.8457 38.2020 87.4908 0
M  V30 6 C  20.5001 39.7001 87.6253 0
M  V30 7 C  21.7284 40.5767 88.0713 0 CFG=2
M  V30 8 N  21.4052 42.0110 88.1799 0
M  V30 9 C  21.2890 42.6829 89.3484 0
M  V30 10 O  21.3258 42.1101 90.4398 0
M  V30 11 C  21.0992 44.2210 89.3908 0 CFG=2
M  V30 12 C  19.6321 44.6344 89.6446 0
M  V30 13 N  21.6882 44.8498 88.1467 0 CHG=1
M  V30 14 C  22.0348 46.3429 88.2492 0
M  V30 15 C  23.0134 40.4140 87.2118 0
M  V30 16 O  22.8976 40.2034 86.0056 0
M  V30 17 N  24.2249 40.5301 87.8169 0
M  V30 18 C  25.5017 40.3563 87.0892 0 CFG=1
M  V30 19 C  26.5704 40.9522 88.0355 0
M  V30 20 C  25.7980 41.6653 89.1356 0
M  V30 21 C  24.4981 40.8793 89.2085 0
M  V30 22 C  25.7723 38.8788 86.7485 0
M  V30 23 O  26.0836 38.0993 87.6434 0
M  V30 24 N  25.6392 38.5207 85.4653 0
M  V30 25 C  25.7598 37.1434 84.9656 0 CFG=2
M  V30 26 C  26.6765 36.9726 83.7409 0 CFG=1
M  V30 27 C  25.8800 36.2644 82.6404 0
M  V30 28 C  24.5051 36.0927 83.2311 0
M  V30 29 C  24.4276 36.6232 84.5177 0
M  V30 30 C  23.3680 35.5504 82.6400 0
M  V30 31 C  22.1581 35.5565 83.3237 0
M  V30 32 C  22.0848 36.0693 84.6237 0
M  V30 33 C  23.2286 36.5833 85.2256 0
M  V30 34 O  27.1487 38.2310 83.2314 0
M  V30 35 C  28.4388 38.6584 83.6597 0
M  V30 36 C  29.5191 37.7466 83.2439 0
M  V30 37 C  30.3464 36.8985 82.9619 0
M  V30 38 C  31.3230 35.9812 82.7131 0
M  V30 39 C  32.2944 35.2588 82.5657 0
M  V30 40 C  33.5798 34.5515 82.4667 0
M  V30 41 O  34.6730 35.2773 83.0319 0
M  V30 42 C  34.7705 35.3317 84.4574 0 CFG=2
M  V30 43 C  33.8888 36.4492 85.0417 0
M  V30 44 C  34.7046 37.0581 86.1535 0
M  V30 45 C  36.0323 36.6267 86.0891 0
M  V30 46 C  34.3207 38.0021 87.1104 0
M  V30 47 C  35.2568 38.4766 88.0261 0
M  V30 48 C  36.5810 38.0353 87.9715 0
M  V30 49 C  36.9727 37.1192 86.9948 0
M  V30 50 C  36.2073 35.6573 84.9330 0 CFG=2
M  V30 51 N  37.1755 36.0289 83.8874 0
M  V30 52 C  37.2683 37.2228 83.2719 0
M  V30 53 O  36.6181 38.2240 83.5782 0
M  V30 54 C  38.2388 37.2894 82.0731 0 CFG=2
M  V30 55 C  39.3054 38.3878 82.2393 0
M  V30 56 C  39.6703 38.7612 80.8137 0
M  V30 57 C  38.3327 38.6854 80.0862 0
M  V30 58 N  37.5765 37.6591 80.8030 0
M  V30 59 C  36.4716 37.0293 80.3426 0
M  V30 60 O  36.1304 35.9104 80.7355 0
M  V30 61 C  35.5594 37.7600 79.3113 0 CFG=1
M  V30 62 N  34.8107 36.7486 78.5558 0
M  V30 63 C  35.3591 35.9277 77.6475 0
M  V30 64 O  36.4928 36.0817 77.1801 0
M  V30 65 C  34.4905 34.7030 77.2651 0 CFG=2
M  V30 66 C  34.7163 33.5322 78.2500 0
M  V30 67 N  34.8829 34.3446 75.8529 0 CHG=1
M  V30 68 C  34.0456 33.2292 75.1982 0
M  V30 69 C  34.5688 38.7902 79.9596 0
M  V30 70 C  33.7656 38.2502 81.1680 0
M  V30 71 C  32.6365 39.2337 81.5459 0
M  V30 72 C  33.1822 40.6532 81.8182 0
M  V30 73 C  34.1393 41.1567 80.7161 0
M  V30 74 C  35.2269 40.1029 80.4352 0
M  V30 75 H  20.4741 40.0061 85.4507 0
M  V30 76 H  19.5704 41.1711 86.3275 0
M  V30 77 H  18.0504 39.5566 85.1331 0
M  V30 78 H  17.7528 39.5569 86.8454 0
M  V30 79 H  19.2634 37.4617 85.2555 0
M  V30 80 H  17.7891 37.2460 86.1509 0
M  V30 81 H  19.8195 36.2925 87.3358 0
M  V30 82 H  18.9617 37.4726 88.2993 0
M  V30 83 H  21.4351 37.8705 88.3479 0
M  V30 84 H  21.4830 38.0558 86.6278 0
M  V30 85 H  19.7764 39.8048 88.4391 0
M  V30 86 H  21.9871 40.1869 89.0579 0
M  V30 87 H  21.2887 42.4917 87.2954 0
M  V30 88 H  21.7262 44.5891 90.2081 0
M  V30 89 H  19.2616 44.2261 90.5863 0
M  V30 90 H  19.5140 45.7163 89.7094 0
M  V30 91 H  18.9685 44.2822 88.8586 0
M  V30 92 H  22.5055 44.3261 87.8722 0
M  V30 93 H  22.4344 46.6243 87.2740 0
M  V30 94 H  21.1126 46.8878 88.4584 0
M  V30 95 H  22.7784 46.4679 89.0370 0
M  V30 96 H  25.4628 40.9530 86.1749 0
M  V30 97 H  27.2534 41.6274 87.5180 0
M  V30 98 H  27.1852 40.1743 88.4897 0
M  V30 99 H  25.5832 42.6880 88.8306 0
M  V30 100 H  26.3357 41.7031 90.0851 0
M  V30 101 H  23.7293 41.4709 89.7004 0
M  V30 102 H  24.6356 39.9583 89.7805 0
M  V30 103 H  25.3739 39.2190 84.7859 0
M  V30 104 H  26.0828 36.4275 85.7116 0
M  V30 105 H  27.5202 36.3542 84.0433 0
M  V30 106 H  25.8509 36.8732 81.7362 0
M  V30 107 H  26.3441 35.3092 82.3969 0
M  V30 108 H  23.4070 35.1512 81.6432 0
M  V30 109 H  21.2829 35.1562 82.8434 0
M  V30 110 H  21.1564 36.0557 85.1738 0
M  V30 111 H  23.2043 36.9641 86.2342 0
M  V30 112 H  28.6481 39.6364 83.2285 0
M  V30 113 H  28.4673 38.7665 84.7444 0
M  V30 114 H  33.4818 33.5652 82.9175 0
M  V30 115 H  33.7785 34.4018 81.4099 0
M  V30 116 H  34.4419 34.3648 84.8438 0
M  V30 117 H  33.6800 37.2035 84.2794 0
M  V30 118 H  32.9358 36.0550 85.3874 0
M  V30 119 H  33.3011 38.3612 87.1532 0
M  V30 120 H  34.9573 39.1901 88.7813 0
M  V30 121 H  37.3037 38.4117 88.6799 0
M  V30 122 H  38.0016 36.7975 86.9447 0
M  V30 123 H  36.5902 34.7358 85.3764 0
M  V30 124 H  37.7444 35.2750 83.5404 0
M  V30 125 H  38.7262 36.3224 81.9254 0
M  V30 126 H  38.8876 39.2612 82.7486 0
M  V30 127 H  40.1687 38.0511 82.8181 0
M  V30 128 H  40.1530 39.7353 80.7339 0
M  V30 129 H  40.3515 38.0095 80.4048 0
M  V30 130 H  37.8260 39.6475 80.1591 0
M  V30 131 H  38.4704 38.4393 79.0293 0
M  V30 132 H  36.1747 38.2921 78.5887 0
M  V30 133 H  33.8862 36.5493 78.9122 0
M  V30 134 H  33.4361 34.9856 77.2440 0
M  V30 135 H  34.4583 33.8246 79.2691 0
M  V30 136 H  34.0840 32.6744 78.0217 0
M  V30 137 H  35.7537 33.1905 78.2649 0
M  V30 138 H  34.7543 35.1987 75.3261 0
M  V30 139 H  34.3845 33.1456 74.1647 0
M  V30 140 H  34.2269 32.3026 75.7459 0
M  V30 141 H  32.9978 33.5348 75.2458 0
M  V30 142 H  33.8564 39.0421 79.1692 0
M  V30 143 H  33.3254 37.2917 80.8999 0
M  V30 144 H  34.4087 38.0232 82.0177 0
M  V30 145 H  31.8785 39.2625 80.7620 0
M  V30 146 H  32.1341 38.8827 82.4462 0
M  V30 147 H  32.3519 41.3527 81.9530 0
M  V30 148 H  33.7170 40.6422 82.7722 0
M  V30 149 H  33.5830 41.3740 79.8007 0
M  V30 150 H  34.5981 42.0951 81.0328 0
M  V30 151 H  35.8831 39.9363 81.2931 0
M  V30 152 H  35.8672 40.4879 79.6435 0
M  V30 153 H  20.9639 44.7562 87.4249 0
M  V30 154 H  35.8683 34.1162 75.8612 0
M  V30 END ATOM
M  V30 BEGIN BOND
M  V30 1 1 1 2
M  V30 2 1 1 6
M  V30 3 1 1 75
M  V30 4 1 1 76
M  V30 5 1 2 3
M  V30 6 1 2 77
M  V30 7 1 2 78
M  V30 8 1 3 4
M  V30 9 1 3 79
M  V30 10 1 3 80
M  V30 11 1 4 5
M  V30 12 1 4 81
M  V30 13 1 4 82
M  V30 14 1 5 6
M  V30 15 1 5 83
M  V30 16 1 5 84
M  V30 17 1 6 7
M  V30 18 1 6 85
M  V30 19 1 7 8
M  V30 20 1 7 15
M  V30 21 1 7 86
M  V30 22 1 8 9
M  V30 23 1 8 87
M  V30 24 2 9 10
M  V30 25 1 9 11
M  V30 26 1 11 12
M  V30 27 1 11 13
M  V30 28 1 11 88
M  V30 29 1 12 89
M  V30 30 1 12 90
M  V30 31 1 12 91
M  V30 32 1 13 14
M  V30 33 1 13 92
M  V30 34 1 13 153
M  V30 35 1 14 93
M  V30 36 1 14 94
M  V30 37 1 14 95
M  V30 38 2 15 16
M  V30 39 1 15 17
M  V30 40 1 17 18
M  V30 41 1 17 21
M  V30 42 1 18 19
M  V30 43 1 18 22
M  V30 44 1 18 96
M  V30 45 1 19 20
M  V30 46 1 19 97
M  V30 47 1 19 98
M  V30 48 1 20 21
M  V30 49 1 20 99
M  V30 50 1 20 100
M  V30 51 1 21 101
M  V30 52 1 21 102
M  V30 53 2 22 23
M  V30 54 1 22 24
M  V30 55 1 24 25
M  V30 56 1 24 103
M  V30 57 1 25 26
M  V30 58 1 25 29
M  V30 59 1 25 104
M  V30 60 1 26 27
M  V30 61 1 26 34
M  V30 62 1 26 105
M  V30 63 1 27 28
M  V30 64 1 27 106
M  V30 65 1 27 107
M  V30 66 2 28 29
M  V30 67 1 28 30
M  V30 68 1 29 33
M  V30 69 2 30 31
M  V30 70 1 30 108
M  V30 71 1 31 32
M  V30 72 1 31 109
M  V30 73 2 32 33
M  V30 74 1 32 110
M  V30 75 1 33 111
M  V30 76 1 34 35
M  V30 77 1 35 36
M  V30 78 1 35 112
M  V30 79 1 35 113
M  V30 80 3 36 37
M  V30 81 1 37 38
M  V30 82 3 38 39
M  V30 83 1 39 40
M  V30 84 1 40 41
M  V30 85 1 40 114
M  V30 86 1 40 115
M  V30 87 1 41 42
M  V30 88 1 42 43
M  V30 89 1 42 50
M  V30 90 1 42 116
M  V30 91 1 43 44
M  V30 92 1 43 117
M  V30 93 1 43 118
M  V30 94 2 44 45
M  V30 95 1 44 46
M  V30 96 1 45 50
M  V30 97 1 45 49
M  V30 98 2 46 47
M  V30 99 1 46 119
M  V30 100 1 47 48
M  V30 101 1 47 120
M  V30 102 2 48 49
M  V30 103 1 48 121
M  V30 104 1 49 122
M  V30 105 1 50 51
M  V30 106 1 50 123
M  V30 107 1 51 52
M  V30 108 1 51 124
M  V30 109 2 52 53
M  V30 110 1 52 54
M  V30 111 1 54 55
M  V30 112 1 54 58
M  V30 113 1 54 125
M  V30 114 1 55 56
M  V30 115 1 55 126
M  V30 116 1 55 127
M  V30 117 1 56 57
M  V30 118 1 56 128
M  V30 119 1 56 129
M  V30 120 1 57 58
M  V30 121 1 57 130
M  V30 122 1 57 131
M  V30 123 1 58 59
M  V30 124 2 59 60
M  V30 125 1 59 61
M  V30 126 1 61 62
M  V30 127 1 61 69
M  V30 128 1 61 132
M  V30 129 1 62 63
M  V30 130 1 62 133
M  V30 131 2 63 64
M  V30 132 1 63 65
M  V30 133 1 65 66
M  V30 134 1 65 67
M  V30 135 1 65 134
M  V30 136 1 66 135
M  V30 137 1 66 136
M  V30 138 1 66 137
M  V30 139 1 67 68
M  V30 140 1 67 138
M  V30 141 1 67 154
M  V30 142 1 68 139
M  V30 143 1 68 140
M  V30 144 1 68 141
M  V30 145 1 69 70
M  V30 146 1 69 74
M  V30 147 1 69 142
M  V30 148 1 70 71
M  V30 149 1 70 143
M  V30 150 1 70 144
M  V30 151 1 71 72
M  V30 152 1 71 145
M  V30 153 1 71 146
M  V30 154 1 72 73
M  V30 155 1 72 147
M  V30 156 1 72 148
M  V30 157 1 73 74
M  V30 158 1 73 149
M  V30 159 1 73 150
M  V30 160 1 74 151
M  V30 161 1 74 152
M  V30 END BOND
M  V30 END CTAB
M  END
> <s_m_entry_id>
133

> <s_m_entry_name>
result.4373

> <s_m_Source_Path>
D:\OneDrive - zju.edu.cn\DOC\A-Finished\LCK_VS\Planet\LCK-8617

> <s_m_Source_File>
glide-dock_SP_top1262_2_pv.maegz

> <i_m_Source_File_Index>
133

> <PLANET_affinity>
9.398

> <i_lp_mmshare_version>
54117

> <i_f3d_flags>
0

> <s_epik_input>
W0NIMl0xW0NIMl1bQ0gyXVtDSDJdW0NIMl1bQ0hdMVtDQEhdKFtOSF1DKD1PKVtDQEhdKFtDSDNdKVtOSF1bQ0gzXSlDKD1PKU4yW0NAQEhdKFtDSDJdW0NIMl1bQ0gyXTIpQyg9TylbTkhdW0NAQEhdKGMoYzM0KVtjSF1bY0hdW2NIXVtjSF00KVtDQEBIXShbQ0gyXTMpT1tDSDJdQyNDQyNDW0NIMl1PW0NASF0oW0NIMl01KVtDQEhdKGMoYzU2KVtjSF1bY0hdW2NIXVtjSF02KVtOSF1DKD1PKVtDQEBIXTdbQ0gyXVtDSDJdW0NIMl1ON0MoPU8pW0NAQEhdKFtOSF1DKD1PKVtDQEhdKFtDSDNdKVtOSF1bQ0gzXSlbQ0hdOFtDSDJdW0NIMl1bQ0gyXVtDSDJdW0NIMl04

> <s_epik_cmdline>
J2VwaWtfcHl0aG9uJywgJy1waCcsICc3LjAnLCAnLXRuJywgJzgnLCAnLW1hJywgJzUwMCcsICctaW1hZScsICc8aW5maWxlLm1hZT4nLCAnLW9tYWUnLCAnPG91dGZpbGUubWFlPic=

> <r_epik_Ionization_Penalty>
  0.1545

> <r_epik_Ionization_Penalty_Charging>
  0.1545

> <r_epik_Ionization_Penalty_Neutral>
  0.0000

> <r_epik_State_Penalty>
  0.1517

> <r_epik_Charging_Adjusted_Penalty>
0.306249

> <i_epik_Tot_Q>
2

> <i_epik_Tot_abs_Q>
2

> <s_lp_Force_Field>
S-OPLS

> <r_lp_Energy>
71.939

> <b_lp_Chiralities_Consistent>
1

> <s_lp_Variant>
CN[C@@H](C)C(N[C@H](C(N1[C@H](C(N[C@H]2C3=CC=CC=C3C[C@H]2OCC#CC#CCO[C@H]4[C@@...-1

> <s_i_glide_gridfile>
glide-grid_1

> <i_i_glide_lignum>
366

> <i_i_glide_rotatable_bonds>
27

> <r_i_docking_score>
-8.91101247281542

> <r_i_glide_ligand_efficiency>
-0.120419087470479

> <r_i_glide_ligand_efficiency_sa>
-0.505559843936333

> <r_i_glide_ligand_efficiency_ln>
-1.68003452375286

> <r_i_glide_gscore>
-9.06271247281542

> <r_i_glide_lipo>
-3.87159584189739

> <r_i_glide_hbond>
-0.207308178614409

> <r_i_glide_metal>
0

> <r_i_glide_rewards>
-0.159962610376238

> <r_i_glide_evdw>
-56.5980339050293

> <r_i_glide_ecoul>
-13.5757865905762

> <r_i_glide_erotb>
0.315861686528313

> <r_i_glide_esite>
-0.273437844617809

> <r_i_glide_emodel>
-107.877006176736

> <r_i_glide_energy>
-70.1738204956055

> <r_i_glide_einternal>
29.7981643676758

> <i_i_glide_confnum>
285

> <i_i_glide_posenum>
309

> <r_i_glide_eff_state_penalty>
0.1517

> <s_m_subgroup_title>
glide-dock_SP_top1262_2_pv

> <s_m_subgroupid>
glide-dock_SP_top1262_2_pv

> <b_m_subgroup_collapsed>
0

$$$$
O=C([C@H]([C@@]([C@H](OC)C([C@@H](O)[C@H](O)C)=O)([H])C1)O[C@@](O[C@H](C)[C@H...
                    3D
 Schrodinger Suite 2021-3.
  0  0  0     0  0            999 V3000
M  V30 BEGIN CTAB
M  V30 COUNTS 152 159 0 0 0
M  V30 BEGIN ATOM
M  V30 1 O  34.4832 33.0618 79.8920 0
M  V30 2 C  35.7525 32.5147 79.5517 0 CFG=2
M  V30 3 C  36.0781 33.0653 78.1486 0
M  V30 4 C  35.7624 30.9560 79.5748 0 CFG=2
M  V30 5 O  34.8831 30.3619 78.6314 0
M  V30 6 C  35.5728 30.4192 81.0236 0 CFG=1
M  V30 7 C  35.7177 28.8914 81.1267 0
M  V30 8 O  36.5657 30.9932 81.8871 0
M  V30 9 C  36.4862 32.3952 81.9711 0 CFG=2
M  V30 10 C  36.7939 32.9956 80.5857 0
M  V30 11 O  37.4564 32.8551 82.8649 0
M  V30 12 C  37.0673 33.8857 83.7790 0 CFG=2
M  V30 13 C  36.6951 35.2070 83.0752 0
M  V30 14 C  38.1815 34.1367 84.8241 0 CFG=1
M  V30 15 O  39.4445 34.3665 84.2126 0
M  V30 16 C  37.7636 35.3235 85.7398 0 CFG=1
M  V30 17 C  38.8247 35.7204 86.7816 0
M  V30 18 O  37.4401 36.4857 84.9569 0
M  V30 19 C  36.3442 36.2843 84.0980 0 CFG=1
M  V30 20 O  36.1063 37.4342 83.3484 0
M  V30 21 C  35.4565 38.5125 84.0124 0 CFG=2
M  V30 22 C  33.9951 38.5581 83.5341 0
M  V30 23 C  36.1869 39.8313 83.6777 0 CFG=2
M  V30 24 O  37.4726 39.8338 84.2815 0
M  V30 25 C  35.3403 41.0544 84.1181 0 CFG=1
M  V30 26 C  35.9076 42.3975 83.6285 0
M  V30 27 O  34.0026 40.9429 83.6077 0
M  V30 28 C  33.3266 39.8122 84.0843 0 CFG=1
M  V30 29 O  32.0045 39.8348 83.6359 0
M  V30 30 C  31.0266 39.2637 84.5098 0 CFG=2
M  V30 31 C  30.2009 38.2033 83.7481 0
M  V30 32 O  30.7078 37.5492 82.8330 0
M  V30 33 C  30.1953 40.3676 85.2221 0 CFG=2
M  V30 34 C  31.1315 41.2847 86.0852 0 CFG=2
M  V30 35 O  31.8503 40.4176 86.9692 0
M  V30 36 C  32.8982 40.9944 87.7407 0
M  V30 37 C  30.4014 42.4221 86.8503 0
M  V30 38 O  29.8241 42.1892 87.9185 0
M  V30 39 C  30.4147 43.8323 86.2054 0 CFG=1
M  V30 40 O  29.3820 44.6308 86.7715 0
M  V30 41 C  31.7739 44.6021 86.3197 0 CFG=2
M  V30 42 O  32.8466 43.9627 85.6433 0
M  V30 43 C  32.2453 44.8886 87.7584 0
M  V30 44 C  29.0673 39.6972 86.0418 0
M  V30 45 C  28.2088 38.7384 85.2192 0
M  V30 46 C  28.7520 37.9905 84.1524 0
M  V30 47 C  26.8776 38.5616 85.5778 0
M  V30 48 C  26.0271 37.6655 84.9048 0
M  V30 49 C  26.5320 36.9021 83.8163 0
M  V30 50 C  27.9223 37.0592 83.4788 0
M  V30 51 O  28.4430 36.2735 82.4746 0
M  V30 52 C  25.6151 36.0282 83.1365 0
M  V30 53 O  26.0274 35.2739 82.0684 0
M  V30 54 C  24.2693 35.9449 83.5293 0
M  V30 55 C  23.2985 35.0778 82.7245 0
M  V30 56 C  23.8005 36.6792 84.6217 0
M  V30 57 C  24.6827 37.5209 85.3072 0
M  V30 58 O  22.4624 36.5393 84.9693 0
M  V30 59 C  21.8332 37.4622 85.8127 0 CFG=2
M  V30 60 O  20.5308 37.0244 86.1101 0
M  V30 61 C  19.8612 37.8529 87.0746 0 CFG=2
M  V30 62 C  18.4925 37.2140 87.3704 0
M  V30 63 C  19.7424 39.3295 86.5882 0 CFG=1
M  V30 64 O  19.2842 40.1838 87.6266 0
M  V30 65 C  21.0978 39.8333 86.0383 0 CFG=1
M  V30 66 C  21.7017 38.8005 85.0800 0
M  V30 67 O  20.9297 41.0526 85.3151 0
M  V30 68 C  21.9133 42.0493 85.3968 0 CFG=2
M  V30 69 O  23.2063 41.5594 85.1344 0
M  V30 70 C  24.1787 42.6103 85.0046 0 CFG=2
M  V30 71 C  25.5217 41.9739 84.6121 0
M  V30 72 C  24.2634 43.4496 86.3153 0 CFG=1
M  V30 73 O  25.1362 44.5585 86.1970 0
M  V30 74 C  22.8531 43.9126 86.7523 0 CFG=1
M  V30 75 C  21.8998 42.7112 86.7804 0
M  V30 76 O  22.8613 44.5746 88.0013 0
M  V30 77 H  33.7744 32.5092 79.5365 0
M  V30 78 H  37.0513 32.7192 77.7987 0
M  V30 79 H  36.0959 34.1569 78.1433 0
M  V30 80 H  35.3340 32.7549 77.4143 0
M  V30 81 H  36.7525 30.6292 79.2459 0
M  V30 82 H  33.9680 30.6065 78.8442 0
M  V30 83 H  34.5762 30.6840 81.3893 0
M  V30 84 H  34.9659 28.3745 80.5304 0
M  V30 85 H  36.6976 28.5659 80.7783 0
M  V30 86 H  35.6089 28.5588 82.1598 0
M  V30 87 H  35.4733 32.6041 82.3331 0
M  V30 88 H  37.7997 32.6772 80.3006 0
M  V30 89 H  36.8141 34.0835 80.6460 0
M  V30 90 H  36.1927 33.5080 84.3155 0
M  V30 91 H  37.5404 35.5564 82.4793 0
M  V30 92 H  35.8339 35.0841 82.4167 0
M  V30 93 H  38.2980 33.2368 85.4301 0
M  V30 94 H  40.1311 34.2717 84.8771 0
M  V30 95 H  36.8826 35.0240 86.3080 0
M  V30 96 H  39.1280 34.8663 87.3900 0
M  V30 97 H  39.7138 36.1353 86.3066 0
M  V30 98 H  38.4303 36.4805 87.4575 0
M  V30 99 H  35.4839 36.0146 84.7186 0
M  V30 100 H  35.4797 38.3628 85.0962 0
M  V30 101 H  33.9492 38.5961 82.4450 0
M  V30 102 H  33.4447 37.6781 83.8609 0
M  V30 103 H  36.3407 39.8776 82.5970 0
M  V30 104 H  37.9154 39.0160 84.0320 0
M  V30 105 H  35.3091 41.0897 85.2103 0
M  V30 106 H  36.9190 42.5616 84.0004 0
M  V30 107 H  35.9314 42.4403 82.5390 0
M  V30 108 H  35.2964 43.2290 83.9793 0
M  V30 109 H  33.3861 39.8815 85.1701 0
M  V30 110 H  31.5494 38.6721 85.2620 0
M  V30 111 H  29.7394 40.9936 84.4509 0
M  V30 112 H  31.8441 41.7330 85.3938 0
M  V30 113 H  33.5031 40.1958 88.1745 0
M  V30 114 H  33.5507 41.6249 87.1365 0
M  V30 115 H  32.5045 41.5846 88.5662 0
M  V30 116 H  30.1567 43.6790 85.1624 0
M  V30 117 H  29.1995 45.3639 86.1786 0
M  V30 118 H  31.6463 45.5646 85.8250 0
M  V30 119 H  32.5873 43.8733 84.7124 0
M  V30 120 H  31.4971 45.4540 88.3124 0
M  V30 121 H  32.4386 43.9718 88.3123 0
M  V30 122 H  33.1668 45.4707 87.7614 0
M  V30 123 H  29.5259 39.1275 86.8463 0
M  V30 124 H  28.4326 40.4459 86.5167 0
M  V30 125 H  26.4772 39.1209 86.4121 0
M  V30 126 H  29.3828 36.4591 82.3455 0
M  V30 127 H  26.9523 35.4642 81.8588 0
M  V30 128 H  23.4908 34.0177 82.8926 0
M  V30 129 H  22.2474 35.2748 82.9413 0
M  V30 130 H  23.4237 35.2617 81.6582 0
M  V30 131 H  24.3477 38.1096 86.1483 0
M  V30 132 H  22.3502 37.4939 86.7751 0
M  V30 133 H  20.4412 37.8271 88.0011 0
M  V30 134 H  17.9363 37.7841 88.1132 0
M  V30 135 H  17.8827 37.1573 86.4700 0
M  V30 136 H  18.6098 36.1988 87.7537 0
M  V30 137 H  19.0058 39.3766 85.7836 0
M  V30 138 H  18.3555 40.4135 87.4706 0
M  V30 139 H  21.7829 39.9777 86.8743 0
M  V30 140 H  22.6665 39.1332 84.7030 0
M  V30 141 H  21.0566 38.6599 84.2091 0
M  V30 142 H  21.6849 42.7497 84.5887 0
M  V30 143 H  23.8699 43.2582 84.1820 0
M  V30 144 H  26.2935 42.7329 84.4847 0
M  V30 145 H  25.8678 41.2753 85.3698 0
M  V30 146 H  25.4411 41.4351 83.6704 0
M  V30 147 H  24.6758 42.8189 87.1058 0
M  V30 148 H  24.9525 45.1375 86.9492 0
M  V30 149 H  22.4982 44.6603 86.0443 0
M  V30 150 H  20.8823 43.0055 87.0267 0
M  V30 151 H  22.2277 42.0014 87.5376 0
M  V30 152 H  21.9437 44.7533 88.2326 0
M  V30 END ATOM
M  V30 BEGIN BOND
M  V30 1 1 1 2
M  V30 2 1 1 77
M  V30 3 1 2 3
M  V30 4 1 2 4
M  V30 5 1 2 10
M  V30 6 1 3 78
M  V30 7 1 3 79
M  V30 8 1 3 80
M  V30 9 1 4 5
M  V30 10 1 4 6
M  V30 11 1 4 81
M  V30 12 1 5 82
M  V30 13 1 6 7
M  V30 14 1 6 8
M  V30 15 1 6 83
M  V30 16 1 7 84
M  V30 17 1 7 85
M  V30 18 1 7 86
M  V30 19 1 8 9
M  V30 20 1 9 10
M  V30 21 1 9 11
M  V30 22 1 9 87
M  V30 23 1 10 88
M  V30 24 1 10 89
M  V30 25 1 11 12
M  V30 26 1 12 13
M  V30 27 1 12 14
M  V30 28 1 12 90
M  V30 29 1 13 19
M  V30 30 1 13 91
M  V30 31 1 13 92
M  V30 32 1 14 15
M  V30 33 1 14 16
M  V30 34 1 14 93
M  V30 35 1 15 94
M  V30 36 1 16 17
M  V30 37 1 16 18
M  V30 38 1 16 95
M  V30 39 1 17 96
M  V30 40 1 17 97
M  V30 41 1 17 98
M  V30 42 1 18 19
M  V30 43 1 19 20
M  V30 44 1 19 99
M  V30 45 1 20 21
M  V30 46 1 21 22
M  V30 47 1 21 23
M  V30 48 1 21 100
M  V30 49 1 22 28
M  V30 50 1 22 101
M  V30 51 1 22 102
M  V30 52 1 23 24
M  V30 53 1 23 25
M  V30 54 1 23 103
M  V30 55 1 24 104
M  V30 56 1 25 26
M  V30 57 1 25 27
M  V30 58 1 25 105
M  V30 59 1 26 106
M  V30 60 1 26 107
M  V30 61 1 26 108
M  V30 62 1 27 28
M  V30 63 1 28 29
M  V30 64 1 28 109
M  V30 65 1 29 30
M  V30 66 1 30 31
M  V30 67 1 30 33
M  V30 68 1 30 110
M  V30 69 2 31 32
M  V30 70 1 31 46
M  V30 71 1 33 34
M  V30 72 1 33 44
M  V30 73 1 33 111
M  V30 74 1 34 35
M  V30 75 1 34 37
M  V30 76 1 34 112
M  V30 77 1 35 36
M  V30 78 1 36 113
M  V30 79 1 36 114
M  V30 80 1 36 115
M  V30 81 2 37 38
M  V30 82 1 37 39
M  V30 83 1 39 40
M  V30 84 1 39 41
M  V30 85 1 39 116
M  V30 86 1 40 117
M  V30 87 1 41 42
M  V30 88 1 41 43
M  V30 89 1 41 118
M  V30 90 1 42 119
M  V30 91 1 43 120
M  V30 92 1 43 121
M  V30 93 1 43 122
M  V30 94 1 44 45
M  V30 95 1 44 123
M  V30 96 1 44 124
M  V30 97 2 45 46
M  V30 98 1 45 47
M  V30 99 1 46 50
M  V30 100 2 47 48
M  V30 101 1 47 125
M  V30 102 1 48 49
M  V30 103 1 48 57
M  V30 104 2 49 50
M  V30 105 1 49 52
M  V30 106 1 50 51
M  V30 107 1 51 126
M  V30 108 1 52 53
M  V30 109 2 52 54
M  V30 110 1 53 127
M  V30 111 1 54 55
M  V30 112 1 54 56
M  V30 113 1 55 128
M  V30 114 1 55 129
M  V30 115 1 55 130
M  V30 116 2 56 57
M  V30 117 1 56 58
M  V30 118 1 57 131
M  V30 119 1 58 59
M  V30 120 1 59 60
M  V30 121 1 59 66
M  V30 122 1 59 132
M  V30 123 1 60 61
M  V30 124 1 61 62
M  V30 125 1 61 63
M  V30 126 1 61 133
M  V30 127 1 62 134
M  V30 128 1 62 135
M  V30 129 1 62 136
M  V30 130 1 63 64
M  V30 131 1 63 65
M  V30 132 1 63 137
M  V30 133 1 64 138
M  V30 134 1 65 66
M  V30 135 1 65 67
M  V30 136 1 65 139
M  V30 137 1 66 140
M  V30 138 1 66 141
M  V30 139 1 67 68
M  V30 140 1 68 69
M  V30 141 1 68 75
M  V30 142 1 68 142
M  V30 143 1 69 70
M  V30 144 1 70 71
M  V30 145 1 70 72
M  V30 146 1 70 143
M  V30 147 1 71 144
M  V30 148 1 71 145
M  V30 149 1 71 146
M  V30 150 1 72 73
M  V30 151 1 72 74
M  V30 152 1 72 147
M  V30 153 1 73 148
M  V30 154 1 74 75
M  V30 155 1 74 76
M  V30 156 1 74 149
M  V30 157 1 75 150
M  V30 158 1 75 151
M  V30 159 1 76 152
M  V30 END BOND
M  V30 END CTAB
M  END
> <s_m_entry_id>
135

> <s_m_entry_name>
result.6175

> <s_m_Source_Path>
D:\OneDrive - zju.edu.cn\DOC\A-Finished\LCK_VS\Planet\LCK-8617

> <s_m_Source_File>
glide-dock_SP_top1262_2_pv.maegz

> <i_m_Source_File_Index>
135

> <PLANET_affinity>
8.837

> <i_lp_mmshare_version>
54117

> <i_f3d_flags>
0

> <s_epik_input>
W09IXVtDQF0xKFtDSDNdKVtDQEhdKFtPSF0pW0NAQEhdKFtDSDNdKU9bQ0BIXShbQ0gyXTEpT1tDQEBIXTJbQ0gyXVtDQEBIXShPW0NASF0oW0NIM10pW0NAQEhdMltPSF0pT1tDQEBIXTNbQ0gyXVtDQEBIXShPW0NASF0oW0NIM10pW0NASF0zW09IXSlPW0NAQEhdKFtDQEBIXShbQ0gyXTQpW0NASF0oT1tDSDNdKUMoPU8pW0NAQEhdKFtPSF0pW0NASF0oW09IXSlbQ0gzXSlDKD1PKWMoYzQ1KWMoW09IXSljNmMoW2NIXTUpW2NIXWMoYyhbQ0gzXSljNltPSF0pT1tDQEBIXTdPW0NASF0oW0NIM10pW0NAQEhdKFtPSF0pW0NAQEhdKFtDSDJdNylPW0NAQEhdOE9bQ0BIXShbQ0gzXSlbQ0BASF0oW09IXSlbQ0BASF0oW0NIMl04KVtPSF0=

> <s_epik_cmdline>
J2VwaWtfcHl0aG9uJywgJy1waCcsICc3LjAnLCAnLXRuJywgJzgnLCAnLW1hJywgJzUwMCcsICctaW1hZScsICc8aW5maWxlLm1hZT4nLCAnLW9tYWUnLCAnPG91dGZpbGUubWFlPic=

> <r_epik_Ionization_Penalty>
  0.0640

> <r_epik_Ionization_Penalty_Charging>
  0.0000

> <r_epik_Ionization_Penalty_Neutral>
  0.0640

> <r_epik_State_Penalty>
  0.0521

> <r_epik_Charging_Adjusted_Penalty>
0.0520968

> <i_epik_Tot_Q>
0

> <i_epik_Tot_abs_Q>
0

> <s_epik_Chemistry_Notes>
This compound contains an acetal/aminal-like group ( X-CH(R)-Y where X, Y are N, S, or O) that may be acid/base labile, releasing an aldehyde.

> <s_lp_Force_Field>
S-OPLS

> <r_lp_Energy>
78.148

> <b_lp_Chiralities_Consistent>
1

> <s_lp_Variant>
O=C([C@H]([C@@]([C@H](OC)C([C@@H](O)[C@H](O)C)=O)([H])C1)O[C@@](O[C@H](C)[C@H...-1

> <s_i_glide_gridfile>
glide-grid_1

> <i_i_glide_lignum>
582

> <i_i_glide_rotatable_bonds>
26

> <r_i_docking_score>
-8.88493760586968

> <r_i_glide_ligand_efficiency>
-0.116907073761443

> <r_i_glide_ligand_efficiency_sa>
-0.495197739490091

> <r_i_glide_ligand_efficiency_ln>
-1.66673833386542

> <r_i_glide_gscore>
-8.93703760586968

> <r_i_glide_lipo>
-2.94804559437185

> <r_i_glide_hbond>
-0.108883767267064

> <r_i_glide_metal>
0

> <r_i_glide_rewards>
-0.852410983026884

> <r_i_glide_evdw>
-51.9819488525391

> <r_i_glide_ecoul>
-16.0647296905518

> <r_i_glide_erotb>
0.0437607465953932

> <r_i_glide_esite>
-0.0626511115895654

> <r_i_glide_emodel>
-100.661366689956

> <r_i_glide_energy>
-68.0466785430908

> <r_i_glide_einternal>
22.0889148712158

> <i_i_glide_confnum>
17

> <i_i_glide_posenum>
180

> <r_i_glide_eff_state_penalty>
0.0521

> <r_lp_tautomer_probability>
0.99985

> <s_m_subgroup_title>
glide-dock_SP_top1262_2_pv

> <s_m_subgroupid>
glide-dock_SP_top1262_2_pv

> <b_m_subgroup_collapsed>
0

$$$$
O=C1OC2(C3=C(OC4=C2C=CC(O)=C4CN(CC(OCC)=O)CC(OCC)=O)C(CN(CC(OCC)=O)CC(OCC)=O)...
                    3D
 Schrodinger Suite 2021-3.
  0  0  0     0  0            999 V3000
M  V30 BEGIN CTAB
M  V30 COUNTS 94 98 0 0 0
M  V30 BEGIN ATOM
M  V30 1 C  26.4835 44.5439 84.4513 0
M  V30 2 C  25.2988 43.6471 84.8537 0
M  V30 3 O  25.4088 42.3308 84.3212 0
M  V30 4 C  26.2636 41.4215 84.8374 0
M  V30 5 O  27.0201 41.6146 85.7890 0
M  V30 6 C  26.1829 40.0934 84.0617 0
M  V30 7 N  26.9435 38.9080 84.5171 0
M  V30 8 C  28.3631 39.0924 84.8856 0
M  V30 9 C  29.2955 39.8278 83.8980 0
M  V30 10 O  28.9075 40.3567 82.8488 0
M  V30 11 O  30.5662 39.8209 84.3481 0
M  V30 12 C  31.5971 40.4758 83.6209 0
M  V30 13 C  32.9289 40.2427 84.3379 0
M  V30 14 C  26.2538 38.1309 85.5621 0
M  V30 15 C  24.8899 37.5666 85.1171 0
M  V30 16 C  24.7781 36.4728 84.2254 0
M  V30 17 O  25.7850 35.8504 83.7515 0 CHG=-1
M  V30 18 C  23.5183 36.0136 83.8405 0
M  V30 19 C  22.3716 36.6568 84.2834 0
M  V30 20 C  23.7094 38.1495 85.6196 0
M  V30 21 C  22.4449 37.7438 85.1601 0
M  V30 22 C  21.1948 38.4968 85.6185 0 CFG=2
M  V30 23 C  20.2638 37.6243 86.3989 0
M  V30 24 C  18.9964 37.7720 85.8666 0
M  V30 25 C  19.1206 38.5019 84.5953 0
M  V30 26 O  18.2619 38.7568 83.7516 0
M  V30 27 O  20.4319 38.8559 84.4620 0
M  V30 28 C  17.8879 37.2273 86.5086 0
M  V30 29 C  18.1023 36.4225 87.6253 0
M  V30 30 C  19.3935 36.1213 88.0434 0
M  V30 31 C  20.4879 36.7514 87.4603 0
M  V30 32 O  23.8405 39.1313 86.5891 0
M  V30 33 C  22.8147 40.0105 86.8772 0
M  V30 34 C  21.5063 39.7708 86.4206 0
M  V30 35 C  20.5192 40.7163 86.7319 0
M  V30 36 C  20.8242 41.8711 87.4362 0
M  V30 37 C  22.1203 42.1155 87.8548 0
M  V30 38 O  22.3690 43.3109 88.4776 0
M  V30 39 C  23.1276 41.1670 87.6218 0
M  V30 40 C  24.5544 41.4619 88.0905 0
M  V30 41 N  24.9408 41.0169 89.4523 0
M  V30 42 C  26.3327 41.4861 89.6530 0
M  V30 43 C  27.4180 40.7608 88.8428 0
M  V30 44 O  27.2880 39.6008 88.4426 0
M  V30 45 O  28.4927 41.5565 88.6452 0
M  V30 46 C  29.5761 41.1565 87.8145 0
M  V30 47 C  30.8970 41.5997 88.4528 0
M  V30 48 C  24.0479 41.5831 90.4909 0
M  V30 49 C  24.2259 41.0786 91.9471 0
M  V30 50 O  25.3308 40.9771 92.4899 0
M  V30 51 O  23.0511 40.7587 92.5439 0
M  V30 52 C  23.0449 40.3152 93.9000 0
M  V30 53 C  21.6409 39.8674 94.3158 0
M  V30 54 H  26.3461 45.5532 84.8375 0
M  V30 55 H  26.5732 44.6127 83.3667 0
M  V30 56 H  27.4286 44.1672 84.8415 0
M  V30 57 H  25.1949 43.6099 85.9401 0
M  V30 58 H  24.3727 44.0752 84.4714 0
M  V30 59 H  25.1251 39.8405 84.0436 0
M  V30 60 H  26.4822 40.3015 83.0334 0
M  V30 61 H  28.4219 39.6028 85.8451 0
M  V30 62 H  28.7990 38.1057 85.0438 0
M  V30 63 H  31.6483 40.0903 82.6001 0
M  V30 64 H  31.3900 41.5445 83.5624 0
M  V30 65 H  33.7464 40.7286 83.8038 0
M  V30 66 H  32.9056 40.6467 85.3505 0
M  V30 67 H  33.1605 39.1792 84.4053 0
M  V30 68 H  26.8716 37.2800 85.8529 0
M  V30 69 H  26.1500 38.7416 86.4570 0
M  V30 70 H  23.4077 35.1752 83.1655 0
M  V30 71 H  21.4103 36.3142 83.9320 0
M  V30 72 H  16.8840 37.3773 86.1354 0
M  V30 73 H  17.2830 35.9595 88.1216 0
M  V30 74 H  19.5282 35.4147 88.8432 0
M  V30 75 H  21.4832 36.5646 87.8316 0
M  V30 76 H  19.4966 40.5761 86.4164 0
M  V30 77 H  20.0459 42.5906 87.6433 0
M  V30 78 H  25.2156 40.9921 87.3675 0
M  V30 79 H  24.7287 42.5346 87.9780 0
M  V30 80 H  26.4009 42.5565 89.4531 0
M  V30 81 H  26.6518 41.3768 90.6833 0
M  V30 82 H  29.5938 40.0800 87.6433 0
M  V30 83 H  29.4628 41.6239 86.8363 0
M  V30 84 H  31.7394 41.2890 87.8370 0
M  V30 85 H  30.9407 42.6838 88.5570 0
M  V30 86 H  31.0246 41.1572 89.4402 0
M  V30 87 H  24.1313 42.6707 90.4980 0
M  V30 88 H  23.0147 41.3760 90.2186 0
M  V30 89 H  23.7364 39.4835 94.0354 0
M  V30 90 H  23.3830 41.1257 94.5475 0
M  V30 91 H  21.5944 39.6814 95.3891 0
M  V30 92 H  20.8902 40.6200 94.0697 0
M  V30 93 H  21.3672 38.9363 93.8194 0
M  V30 94 H  21.6454 43.9289 88.3373 0
M  V30 END ATOM
M  V30 BEGIN BOND
M  V30 1 1 1 2
M  V30 2 1 1 54
M  V30 3 1 1 55
M  V30 4 1 1 56
M  V30 5 1 2 3
M  V30 6 1 2 57
M  V30 7 1 2 58
M  V30 8 1 3 4
M  V30 9 2 4 5
M  V30 10 1 4 6
M  V30 11 1 6 7
M  V30 12 1 6 59
M  V30 13 1 6 60
M  V30 14 1 7 8
M  V30 15 1 7 14
M  V30 16 1 8 9
M  V30 17 1 8 61
M  V30 18 1 8 62
M  V30 19 2 9 10
M  V30 20 1 9 11
M  V30 21 1 11 12
M  V30 22 1 12 13
M  V30 23 1 12 63
M  V30 24 1 12 64
M  V30 25 1 13 65
M  V30 26 1 13 66
M  V30 27 1 13 67
M  V30 28 1 14 15
M  V30 29 1 14 68
M  V30 30 1 14 69
M  V30 31 2 15 16
M  V30 32 1 15 20
M  V30 33 1 16 17
M  V30 34 1 16 18
M  V30 35 2 18 19
M  V30 36 1 18 70
M  V30 37 1 19 21
M  V30 38 1 19 71
M  V30 39 2 20 21
M  V30 40 1 20 32
M  V30 41 1 21 22
M  V30 42 1 22 23
M  V30 43 1 22 27
M  V30 44 1 22 34
M  V30 45 2 23 24
M  V30 46 1 23 31
M  V30 47 1 24 25
M  V30 48 1 24 28
M  V30 49 2 25 26
M  V30 50 1 25 27
M  V30 51 2 28 29
M  V30 52 1 28 72
M  V30 53 1 29 30
M  V30 54 1 29 73
M  V30 55 2 30 31
M  V30 56 1 30 74
M  V30 57 1 31 75
M  V30 58 1 32 33
M  V30 59 2 33 34
M  V30 60 1 33 39
M  V30 61 1 34 35
M  V30 62 2 35 36
M  V30 63 1 35 76
M  V30 64 1 36 37
M  V30 65 1 36 77
M  V30 66 1 37 38
M  V30 67 2 37 39
M  V30 68 1 38 94
M  V30 69 1 39 40
M  V30 70 1 40 41
M  V30 71 1 40 78
M  V30 72 1 40 79
M  V30 73 1 41 42
M  V30 74 1 41 48
M  V30 75 1 42 43
M  V30 76 1 42 80
M  V30 77 1 42 81
M  V30 78 2 43 44
M  V30 79 1 43 45
M  V30 80 1 45 46
M  V30 81 1 46 47
M  V30 82 1 46 82
M  V30 83 1 46 83
M  V30 84 1 47 84
M  V30 85 1 47 85
M  V30 86 1 47 86
M  V30 87 1 48 49
M  V30 88 1 48 87
M  V30 89 1 48 88
M  V30 90 2 49 50
M  V30 91 1 49 51
M  V30 92 1 51 52
M  V30 93 1 52 53
M  V30 94 1 52 89
M  V30 95 1 52 90
M  V30 96 1 53 91
M  V30 97 1 53 92
M  V30 98 1 53 93
M  V30 END BOND
M  V30 END CTAB
M  END
> <s_m_entry_id>
139

> <s_m_entry_name>
result.5759

> <s_m_Source_Path>
D:\OneDrive - zju.edu.cn\DOC\A-Finished\LCK_VS\Planet\LCK-8617

> <s_m_Source_File>
glide-dock_SP_top1262_2_pv.maegz

> <i_m_Source_File_Index>
139

> <PLANET_affinity>
7.676

> <i_lp_mmshare_version>
54117

> <i_f3d_flags>
0

> <s_epik_input>
W0NIM11bQ0gyXU9DKD1PKVtDSDJdTihbQ0gyXUMoPU8pT1tDSDJdW0NIM10pW0NIMl1jKGMoW09IXSlbY0hdW2NIXTEpYyhjMUMyM2M0YyhDKD1PKU8yKVtjSF1bY0hdW2NIXVtjSF00KU9jNWMzW2NIXVtjSF1jKFtPSF0pYzVbQ0gyXU4oW0NIMl1DKD1PKU9bQ0gyXVtDSDNdKVtDSDJdQyg9TylPW0NIMl1bQ0gzXQ==

> <s_epik_cmdline>
J2VwaWtfcHl0aG9uJywgJy1waCcsICc3LjAnLCAnLXRuJywgJzgnLCAnLW1hJywgJzUwMCcsICctaW1hZScsICc8aW5maWxlLm1hZT4nLCAnLW9tYWUnLCAnPG91dGZpbGUubWFlPic=

> <r_epik_Ionization_Penalty>
  0.3713

> <r_epik_Ionization_Penalty_Charging>
  0.2756

> <r_epik_Ionization_Penalty_Neutral>
  0.0957

> <r_epik_State_Penalty>
  0.1924

> <r_epik_Charging_Adjusted_Penalty>
0.467992

> <i_epik_Tot_Q>
-1

> <i_epik_Tot_abs_Q>
1

> <s_epik_Chemistry_Notes>
This compound has an ester and may undergo hydrolysis at high or low pH.

> <s_lp_Force_Field>
S-OPLS

> <r_lp_Energy>
39.9331

> <b_lp_Chiralities_Consistent>
1

> <s_lp_Variant>
O=C1OC2(C3=C(OC4=C2C=CC(O)=C4CN(CC(OCC)=O)CC(OCC)=O)C(CN(CC(OCC)=O)CC(OCC)=O)...-1

> <s_i_glide_gridfile>
glide-grid_1

> <i_i_glide_lignum>
1687

> <i_i_glide_rotatable_bonds>
21

> <r_i_docking_score>
-8.86927020347474

> <r_i_glide_ligand_efficiency>
-0.167344720820278

> <r_i_glide_ligand_efficiency_sa>
-0.628594590029412

> <r_i_glide_ligand_efficiency_ln>
-1.78445659887532

> <r_i_glide_gscore>
-9.06167020347474

> <r_i_glide_lipo>
-3.41934205184366

> <r_i_glide_hbond>
-0.608

> <r_i_glide_metal>
0

> <r_i_glide_rewards>
-1.2397200137334

> <r_i_glide_evdw>
-54.7281455993652

> <r_i_glide_ecoul>
-9.99010276794434

> <r_i_glide_erotb>
0.45356901594243

> <r_i_glide_esite>
-0.0132544586802004

> <r_i_glide_emodel>
-93.3032516134234

> <r_i_glide_energy>
-64.7182483673096

> <r_i_glide_einternal>
16.3024482727051

> <i_i_glide_confnum>
560

> <i_i_glide_posenum>
29

> <r_i_glide_eff_state_penalty>
0.1924

> <r_lp_tautomer_probability>
1

> <s_m_subgroup_title>
glide-dock_SP_top1262_2_pv

> <s_m_subgroupid>
glide-dock_SP_top1262_2_pv

> <b_m_subgroup_collapsed>
0

$$$$
NC1=C2C(N3C(C(C)=C[C@@H](C3)NC(C=C)=O)=C2C4=CC5=CC=CC=C5N=C4)=NC=N1
                    3D
 Schrodinger Suite 2021-3.
  0  0  0     0  0            999 V3000
M  V30 BEGIN CTAB
M  V30 COUNTS 50 54 0 0 0
M  V30 BEGIN ATOM
M  V30 1 N  22.6841 35.1568 83.2308 0
M  V30 2 C  23.9747 35.6358 83.4078 0
M  V30 3 N  24.9323 35.1545 82.5790 0
M  V30 4 C  26.1945 35.6056 82.7819 0
M  V30 5 N  26.6162 36.4890 83.7223 0
M  V30 6 C  25.6327 36.9477 84.5110 0
M  V30 7 C  24.2699 36.5730 84.4184 0
M  V30 8 N  25.7580 37.8289 85.5701 0
M  V30 9 C  24.4970 38.1040 86.0944 0
M  V30 10 C  24.4065 39.1458 87.1439 0
M  V30 11 C  23.0679 39.5552 87.7458 0
M  V30 12 C  25.5069 39.8506 87.4787 0
M  V30 13 C  26.8780 39.6780 86.8398 0 CFG=1
M  V30 14 C  27.0246 38.2937 86.1498 0
M  V30 15 N  27.2778 40.8483 86.0507 0
M  V30 16 C  26.6535 41.3380 84.9623 0
M  V30 17 O  25.6816 40.7972 84.4420 0
M  V30 18 C  27.1776 42.5806 84.4507 0
M  V30 19 C  28.4834 42.9147 84.4438 0
M  V30 20 C  23.5586 37.2951 85.4398 0
M  V30 21 C  22.0979 37.2447 85.6951 0
M  V30 22 C  21.2117 37.6308 84.6934 0
M  V30 23 C  21.5790 36.8939 86.9419 0
M  V30 24 N  20.2751 37.0378 87.2809 0
M  V30 25 C  19.4199 37.5239 86.3397 0
M  V30 26 C  19.8423 37.7844 84.9998 0
M  V30 27 C  18.0838 37.8052 86.7044 0
M  V30 28 C  17.1999 38.3189 85.7588 0
M  V30 29 C  17.5939 38.4945 84.4357 0
M  V30 30 C  18.8994 38.2220 84.0439 0
M  V30 31 H  21.9730 35.4587 83.8762 0
M  V30 32 H  22.4893 34.4564 82.5208 0
M  V30 33 H  26.9577 35.2170 82.1200 0
M  V30 34 H  22.6944 38.8088 88.4428 0
M  V30 35 H  22.3273 39.6994 86.9586 0
M  V30 36 H  23.1347 40.4992 88.2882 0
M  V30 37 H  25.4027 40.6392 88.2093 0
M  V30 38 H  27.5966 39.6856 87.6615 0
M  V30 39 H  27.2827 37.5602 86.9112 0
M  V30 40 H  27.8193 38.2966 85.4024 0
M  V30 41 H  28.0487 41.3879 86.4134 0
M  V30 42 H  26.4337 43.2510 84.0426 0
M  V30 43 H  29.2577 42.2632 84.8248 0
M  V30 44 H  28.8061 43.8666 84.0443 0
M  V30 45 H  21.5719 37.8886 83.7084 0
M  V30 46 H  22.2317 36.5571 87.7322 0
M  V30 47 H  17.7589 37.6481 87.7229 0
M  V30 48 H  16.1863 38.5551 86.0506 0
M  V30 49 H  16.8814 38.8515 83.7074 0
M  V30 50 H  19.2059 38.3561 83.0170 0
M  V30 END ATOM
M  V30 BEGIN BOND
M  V30 1 1 1 2
M  V30 2 1 1 31
M  V30 3 1 1 32
M  V30 4 2 2 3
M  V30 5 1 2 7
M  V30 6 1 3 4
M  V30 7 2 4 5
M  V30 8 1 4 33
M  V30 9 1 5 6
M  V30 10 2 6 7
M  V30 11 1 6 8
M  V30 12 1 7 20
M  V30 13 1 8 9
M  V30 14 1 8 14
M  V30 15 1 9 10
M  V30 16 2 9 20
M  V30 17 1 10 11
M  V30 18 2 10 12
M  V30 19 1 11 34
M  V30 20 1 11 35
M  V30 21 1 11 36
M  V30 22 1 12 13
M  V30 23 1 12 37
M  V30 24 1 13 14
M  V30 25 1 13 15
M  V30 26 1 13 38
M  V30 27 1 14 39
M  V30 28 1 14 40
M  V30 29 1 15 16
M  V30 30 1 15 41
M  V30 31 2 16 17
M  V30 32 1 16 18
M  V30 33 2 18 19
M  V30 34 1 18 42
M  V30 35 1 19 43
M  V30 36 1 19 44
M  V30 37 1 20 21
M  V30 38 2 21 22
M  V30 39 1 21 23
M  V30 40 1 22 26
M  V30 41 1 22 45
M  V30 42 2 23 24
M  V30 43 1 23 46
M  V30 44 1 24 25
M  V30 45 2 25 26
M  V30 46 1 25 27
M  V30 47 1 26 30
M  V30 48 2 27 28
M  V30 49 1 27 47
M  V30 50 1 28 29
M  V30 51 1 28 48
M  V30 52 2 29 30
M  V30 53 1 29 49
M  V30 54 1 30 50
M  V30 END BOND
M  V30 END CTAB
M  END
> <s_m_entry_id>
140

> <s_m_entry_name>
result.4413

> <s_m_Source_Path>
D:\OneDrive - zju.edu.cn\DOC\A-Finished\LCK_VS\Planet\LCK-8617

> <s_m_Source_File>
glide-dock_SP_top1262_2_pv.maegz

> <i_m_Source_File_Index>
140

> <PLANET_affinity>
8.141

> <i_lp_mmshare_version>
54117

> <i_f3d_flags>
0

> <s_epik_input>
W2NIXTFbY0hdW2NIXVtjSF1jKGMxMilbY0hdYyhbY0hdbjIpLWMoYyhjMzQpYyhbTkgyXSluW2NIXW4zKWM1bjRbQ0gyXVtDQEhdKFtDSF09QzVbQ0gzXSlbTkhdQyg9TylbQ0hdPVtDSDJd

> <s_epik_cmdline>
J2VwaWtfcHl0aG9uJywgJy1waCcsICc3LjAnLCAnLXRuJywgJzgnLCAnLW1hJywgJzUwMCcsICctaW1hZScsICc8aW5maWxlLm1hZT4nLCAnLW9tYWUnLCAnPG91dGZpbGUubWFlPic=

> <r_epik_Ionization_Penalty>
  0.0050

> <r_epik_Ionization_Penalty_Charging>
  0.0000

> <r_epik_Ionization_Penalty_Neutral>
  0.0050

> <r_epik_State_Penalty>
  0.0000

> <r_epik_Charging_Adjusted_Penalty>
0

> <i_epik_Tot_Q>
0

> <i_epik_Tot_abs_Q>
0

> <s_lp_Force_Field>
S-OPLS

> <r_lp_Energy>
39.3342

> <b_lp_Chiralities_Consistent>
1

> <s_lp_Variant>
NC1=C2C(N3C(C(C)=C[C@@H](C3)NC(C=C)=O)=C2C4=CC5=CC=CC=C5N=C4)=NC=N1-1

> <s_i_glide_gridfile>
glide-grid_1

> <i_i_glide_lignum>
1174

> <i_i_glide_rotatable_bonds>
4

> <r_i_docking_score>
-8.8609203488455

> <r_i_glide_ligand_efficiency>
-0.295364011628183

> <r_i_glide_ligand_efficiency_sa>
-0.917764656979525

> <r_i_glide_ligand_efficiency_ln>
-2.01329765071774

> <r_i_glide_gscore>
-8.8609203488455

> <r_i_glide_lipo>
-3.06188085765605

> <r_i_glide_hbond>
-0.512019429869037

> <r_i_glide_metal>
0

> <r_i_glide_rewards>
-2.65465626839677

> <r_i_glide_evdw>
-42.895809173584

> <r_i_glide_ecoul>
-5.57418727874756

> <r_i_glide_erotb>
0.348554757567697

> <r_i_glide_esite>
0

> <r_i_glide_emodel>
-68.5999372590976

> <r_i_glide_energy>
-48.4699964523315

> <r_i_glide_einternal>
7.17264699935913

> <i_i_glide_confnum>
64

> <i_i_glide_posenum>
168

> <r_i_glide_eff_state_penalty>
0

> <r_lp_tautomer_probability>
1

> <s_m_subgroup_title>
glide-dock_SP_top1262_2_pv

> <s_m_subgroupid>
glide-dock_SP_top1262_2_pv

> <b_m_subgroup_collapsed>
0

$$$$
NC1=C(C(NC2=C(N3CCC(C)(N)CC3)C=CC=N2)=O)N=C(C4=NC=CC=C4C(F)(F)F)C=N1
                    3D
 Schrodinger Suite 2021-3.
  0  0  0     0  0            999 V3000
M  V30 BEGIN CTAB
M  V30 COUNTS 58 61 0 0 0
M  V30 BEGIN ATOM
M  V30 1 C  24.9969 42.1650 85.7327 0
M  V30 2 C  23.5882 42.7441 85.4717 0
M  V30 3 N  23.7402 44.2526 85.2435 0 CHG=1
M  V30 4 C  22.6289 42.5606 86.6617 0
M  V30 5 C  22.2394 41.0796 86.8364 0
M  V30 6 N  21.6262 40.5238 85.6139 0
M  V30 7 C  22.5126 40.6673 84.4452 0
M  V30 8 C  22.9119 42.1431 84.2184 0
M  V30 9 C  20.7124 39.4871 85.7753 0
M  V30 10 C  19.5420 39.7924 86.4870 0
M  V30 11 C  18.5664 38.8275 86.7046 0
M  V30 12 C  18.7735 37.5553 86.1927 0
M  V30 13 N  19.8922 37.2086 85.5094 0
M  V30 14 C  20.8583 38.1485 85.3244 0
M  V30 15 N  21.9906 37.6604 84.6588 0
M  V30 16 C  23.1750 37.3828 85.2434 0
M  V30 17 O  23.4544 37.6992 86.4013 0
M  V30 18 C  24.1891 36.6867 84.3600 0
M  V30 19 C  23.8724 35.6944 83.4048 0
M  V30 20 N  22.5954 35.1567 83.2435 0
M  V30 21 N  25.4774 37.1178 84.4882 0
M  V30 22 C  26.4389 36.6378 83.6479 0
M  V30 23 C  26.0843 35.6582 82.7062 0
M  V30 24 N  24.8207 35.1853 82.5824 0
M  V30 25 C  27.8546 37.1575 83.7712 0
M  V30 26 N  28.7774 36.2997 83.2431 0
M  V30 27 C  30.0926 36.6100 83.2650 0
M  V30 28 C  30.5668 37.7885 83.8232 0
M  V30 29 C  29.6447 38.6788 84.3646 0
M  V30 30 C  28.2675 38.3923 84.3463 0
M  V30 31 C  27.3056 39.4492 84.9083 0
M  V30 32 F  26.7863 39.0251 86.0606 0
M  V30 33 F  27.9137 40.6123 85.1514 0
M  V30 34 F  26.3254 39.7064 84.0441 0
M  V30 35 H  24.9567 41.0929 85.9227 0
M  V30 36 H  25.6630 42.3069 84.8806 0
M  V30 37 H  25.4741 42.6144 86.6053 0
M  V30 38 H  24.1920 44.7039 86.0236 0
M  V30 39 H  24.2730 44.4148 84.3950 0
M  V30 40 H  21.7012 43.1271 86.5337 0
M  V30 41 H  23.0668 42.9477 87.5837 0
M  V30 42 H  21.5473 41.0175 87.6755 0
M  V30 43 H  23.1004 40.4662 87.1074 0
M  V30 44 H  23.3963 40.0425 84.5690 0
M  V30 45 H  21.9864 40.3122 83.5579 0
M  V30 46 H  23.5628 42.2300 83.3456 0
M  V30 47 H  22.0046 42.6882 83.9439 0
M  V30 48 H  19.3686 40.7945 86.8542 0
M  V30 49 H  17.6711 39.0744 87.2524 0
M  V30 50 H  18.0332 36.7822 86.3414 0
M  V30 51 H  21.8602 37.3441 83.7096 0
M  V30 52 H  21.9234 35.2939 83.9810 0
M  V30 53 H  22.4591 34.4046 82.5732 0
M  V30 54 H  26.8169 35.2248 82.0425 0
M  V30 55 H  30.7668 35.8870 82.8272 0
M  V30 56 H  31.6241 38.0111 83.8333 0
M  V30 57 H  30.0166 39.5993 84.7919 0
M  V30 58 H  22.8260 44.6770 85.0982 0
M  V30 END ATOM
M  V30 BEGIN BOND
M  V30 1 1 1 2
M  V30 2 1 1 35
M  V30 3 1 1 36
M  V30 4 1 1 37
M  V30 5 1 2 3
M  V30 6 1 2 4
M  V30 7 1 2 8
M  V30 8 1 3 38
M  V30 9 1 3 39
M  V30 10 1 3 58
M  V30 11 1 4 5
M  V30 12 1 4 40
M  V30 13 1 4 41
M  V30 14 1 5 6
M  V30 15 1 5 42
M  V30 16 1 5 43
M  V30 17 1 6 7
M  V30 18 1 6 9
M  V30 19 1 7 8
M  V30 20 1 7 44
M  V30 21 1 7 45
M  V30 22 1 8 46
M  V30 23 1 8 47
M  V30 24 2 9 10
M  V30 25 1 9 14
M  V30 26 1 10 11
M  V30 27 1 10 48
M  V30 28 2 11 12
M  V30 29 1 11 49
M  V30 30 1 12 13
M  V30 31 1 12 50
M  V30 32 2 13 14
M  V30 33 1 14 15
M  V30 34 1 15 16
M  V30 35 1 15 51
M  V30 36 2 16 17
M  V30 37 1 16 18
M  V30 38 2 18 19
M  V30 39 1 18 21
M  V30 40 1 19 20
M  V30 41 1 19 24
M  V30 42 1 20 52
M  V30 43 1 20 53
M  V30 44 2 21 22
M  V30 45 1 22 23
M  V30 46 1 22 25
M  V30 47 2 23 24
M  V30 48 1 23 54
M  V30 49 2 25 26
M  V30 50 1 25 30
M  V30 51 1 26 27
M  V30 52 2 27 28
M  V30 53 1 27 55
M  V30 54 1 28 29
M  V30 55 1 28 56
M  V30 56 2 29 30
M  V30 57 1 29 57
M  V30 58 1 30 31
M  V30 59 1 31 32
M  V30 60 1 31 33
M  V30 61 1 31 34
M  V30 END BOND
M  V30 END CTAB
M  END
> <s_m_entry_id>
142

> <s_m_entry_name>
result.1667

> <s_m_Source_Path>
D:\OneDrive - zju.edu.cn\DOC\A-Finished\LCK_VS\Planet\LCK-8617

> <s_m_Source_File>
glide-dock_SP_top1262_2_pv.maegz

> <i_m_Source_File_Index>
142

> <PLANET_affinity>
8.715

> <i_lp_mmshare_version>
54117

> <i_f3d_flags>
0

> <s_epik_input>
W0NIM11DMShbTkgyXSlbQ0gyXVtDSDJdTihbQ0gyXVtDSDJdMSljMltjSF1bY0hdW2NIXW5jMltOSF1DKD1PKWMzYyhbTkgyXSluW2NIXWMobjMpLWM0bltjSF1bY0hdW2NIXWM0QyhGKShGKUY=

> <s_epik_cmdline>
J2VwaWtfcHl0aG9uJywgJy1waCcsICc3LjAnLCAnLXRuJywgJzgnLCAnLW1hJywgJzUwMCcsICctaW1hZScsICc8aW5maWxlLm1hZT4nLCAnLW9tYWUnLCAnPG91dGZpbGUubWFlPic=

> <r_epik_Ionization_Penalty>
  0.0054

> <r_epik_Ionization_Penalty_Charging>
  0.0051

> <r_epik_Ionization_Penalty_Neutral>
  0.0003

> <r_epik_State_Penalty>
  0.0000

> <r_epik_Charging_Adjusted_Penalty>
0.00505364

> <i_epik_Tot_Q>
1

> <i_epik_Tot_abs_Q>
1

> <s_lp_Force_Field>
S-OPLS

> <r_lp_Energy>
67.0926

> <b_lp_Chiralities_Consistent>
1

> <s_lp_Variant>
NC1=C(C(NC2=C(N3CCC(C)(N)CC3)C=CC=N2)=O)N=C(C4=NC=CC=C4C(F)(F)F)C=N1-1

> <s_i_glide_gridfile>
glide-grid_1

> <i_i_glide_lignum>
665

> <i_i_glide_rotatable_bonds>
6

> <r_i_docking_score>
-8.85469996234529

> <r_i_glide_ligand_efficiency>
-0.260432351833685

> <r_i_glide_ligand_efficiency_sa>
-0.843699719443126

> <r_i_glide_ligand_efficiency_ln>
-1.9562515876033

> <r_i_glide_gscore>
-8.85469996234529

> <r_i_glide_lipo>
-2.48219637484039

> <r_i_glide_hbond>
-0.481598329813501

> <r_i_glide_metal>
0

> <r_i_glide_rewards>
-2.18131030679215

> <r_i_glide_evdw>
-46.634651184082

> <r_i_glide_ecoul>
-11.7972164154053

> <r_i_glide_erotb>
0.451155168908488

> <r_i_glide_esite>
-0.059435098292847

> <r_i_glide_emodel>
-87.0264899791217

> <r_i_glide_energy>
-58.4318675994873

> <r_i_glide_einternal>
16.1174468994141

> <i_i_glide_confnum>
168

> <i_i_glide_posenum>
158

> <r_i_glide_eff_state_penalty>
0

> <r_lp_tautomer_probability>
1

> <s_m_subgroup_title>
glide-dock_SP_top1262_2_pv

> <s_m_subgroupid>
glide-dock_SP_top1262_2_pv

> <b_m_subgroup_collapsed>
0

$$$$
O=C(C(C1=CN(C)C2=C1C=CC=C2)=C3C4=CN(C5CCN(CC6=NC=CC=C6)CC5)C7=C4C=CC=C7)NC3=O
                    3D
 Schrodinger Suite 2021-3.
  0  0  0     0  0            999 V3000
M  V30 BEGIN CTAB
M  V30 COUNTS 69 75 0 0 0
M  V30 BEGIN ATOM
M  V30 1 C  29.2138 37.9363 84.5693 0
M  V30 2 C  29.6993 37.1943 83.4963 0
M  V30 3 C  28.8536 36.4335 82.6963 0
M  V30 4 C  27.4807 36.4083 82.9207 0
M  V30 5 C  26.9360 37.0803 84.0384 0
M  V30 6 C  27.8416 37.8468 84.8492 0
M  V30 7 C  25.6144 37.2112 84.6360 0
M  V30 8 C  25.8142 37.9669 85.7795 0
M  V30 9 N  27.1090 38.4071 85.8778 0
M  V30 10 C  27.6163 39.2795 86.9252 0
M  V30 11 C  24.2834 36.6955 84.2372 0
M  V30 12 C  24.0965 35.5565 83.3687 0
M  V30 13 O  24.9151 34.8063 82.8436 0
M  V30 14 C  23.0557 37.1881 84.5226 0
M  V30 15 C  22.0798 36.3132 83.9363 0
M  V30 16 O  20.8528 36.3559 84.0030 0
M  V30 17 N  22.7760 35.4146 83.2452 0
M  V30 18 C  22.6349 38.3975 85.2639 0
M  V30 19 C  21.4706 38.6339 86.0907 0
M  V30 20 C  21.5018 40.0115 86.5045 0
M  V30 21 C  20.3933 37.8382 86.5282 0
M  V30 22 C  19.3394 38.4222 87.2215 0
M  V30 23 C  19.3657 39.7672 87.5564 0
M  V30 24 C  20.4651 40.5726 87.2724 0
M  V30 25 C  23.3015 39.6054 85.2301 0
M  V30 26 N  22.6881 40.5573 86.0129 0
M  V30 27 C  23.2862 41.8806 86.2930 0 CFG=2
M  V30 28 C  23.6486 41.9065 87.7983 0
M  V30 29 C  24.1171 43.2872 88.2745 0
M  V30 30 N  23.0042 44.3055 87.9522 0 CHG=1 CFG=2
M  V30 31 C  22.7449 44.4022 86.4307 0
M  V30 32 C  22.3248 43.0242 85.8869 0
M  V30 33 C  23.3328 45.7058 88.5246 0
M  V30 34 C  22.1126 46.6046 88.6543 0
M  V30 35 N  21.0647 46.0853 89.3501 0
M  V30 36 C  19.9283 46.8203 89.4336 0
M  V30 37 C  19.7983 48.0784 88.8437 0
M  V30 38 C  20.8830 48.6020 88.1393 0
M  V30 39 C  22.0642 47.8605 88.0406 0
M  V30 40 H  29.8832 38.5204 85.1850 0
M  V30 41 H  30.7559 37.2103 83.2760 0
M  V30 42 H  29.2675 35.8843 81.8588 0
M  V30 43 H  26.8731 35.8463 82.2329 0
M  V30 44 H  25.1053 38.2675 86.5375 0
M  V30 45 H  28.3640 38.7579 87.5194 0
M  V30 46 H  28.0795 40.1529 86.4677 0
M  V30 47 H  26.8059 39.6036 87.5768 0
M  V30 48 H  22.3496 34.6687 82.7128 0
M  V30 49 H  20.3451 36.7861 86.2936 0
M  V30 50 H  18.4786 37.8284 87.4934 0
M  V30 51 H  18.4990 40.1948 88.0417 0
M  V30 52 H  20.4644 41.6044 87.5926 0
M  V30 53 H  24.2202 39.8554 84.7159 0
M  V30 54 H  24.1970 41.9400 85.6954 0
M  V30 55 H  24.4887 41.2257 87.9536 0
M  V30 56 H  22.8509 41.5149 88.4279 0
M  V30 57 H  25.0239 43.6224 87.7635 0
M  V30 58 H  24.2832 43.3041 89.3527 0
M  V30 59 H  21.9537 45.1401 86.2952 0
M  V30 60 H  23.6586 44.7674 85.9589 0
M  V30 61 H  21.2811 42.8255 86.0972 0
M  V30 62 H  22.3495 43.1127 84.7993 0
M  V30 63 H  24.1044 46.1326 87.8799 0
M  V30 64 H  23.7674 45.5531 89.5135 0
M  V30 65 H  19.1004 46.3689 89.9568 0
M  V30 66 H  18.8650 48.6202 88.8944 0
M  V30 67 H  20.7877 49.5591 87.6463 0
M  V30 68 H  22.9012 48.2461 87.4787 0
M  V30 69 H  22.1410 44.0000 88.3838 0
M  V30 END ATOM
M  V30 BEGIN BOND
M  V30 1 2 1 2
M  V30 2 1 1 6
M  V30 3 1 1 40
M  V30 4 1 2 3
M  V30 5 1 2 41
M  V30 6 2 3 4
M  V30 7 1 3 42
M  V30 8 1 4 5
M  V30 9 1 4 43
M  V30 10 2 5 6
M  V30 11 1 5 7
M  V30 12 1 6 9
M  V30 13 2 7 8
M  V30 14 1 7 11
M  V30 15 1 8 9
M  V30 16 1 8 44
M  V30 17 1 9 10
M  V30 18 1 10 45
M  V30 19 1 10 46
M  V30 20 1 10 47
M  V30 21 1 11 12
M  V30 22 2 11 14
M  V30 23 2 12 13
M  V30 24 1 12 17
M  V30 25 1 14 15
M  V30 26 1 14 18
M  V30 27 2 15 16
M  V30 28 1 15 17
M  V30 29 1 17 48
M  V30 30 1 18 19
M  V30 31 2 18 25
M  V30 32 1 19 20
M  V30 33 2 19 21
M  V30 34 1 20 26
M  V30 35 2 20 24
M  V30 36 1 21 22
M  V30 37 1 21 49
M  V30 38 2 22 23
M  V30 39 1 22 50
M  V30 40 1 23 24
M  V30 41 1 23 51
M  V30 42 1 24 52
M  V30 43 1 25 26
M  V30 44 1 25 53
M  V30 45 1 26 27
M  V30 46 1 27 28
M  V30 47 1 27 32
M  V30 48 1 27 54
M  V30 49 1 28 29
M  V30 50 1 28 55
M  V30 51 1 28 56
M  V30 52 1 29 30
M  V30 53 1 29 57
M  V30 54 1 29 58
M  V30 55 1 30 31
M  V30 56 1 30 33
M  V30 57 1 30 69
M  V30 58 1 31 32
M  V30 59 1 31 59
M  V30 60 1 31 60
M  V30 61 1 32 61
M  V30 62 1 32 62
M  V30 63 1 33 34
M  V30 64 1 33 63
M  V30 65 1 33 64
M  V30 66 2 34 35
M  V30 67 1 34 39
M  V30 68 1 35 36
M  V30 69 2 36 37
M  V30 70 1 36 65
M  V30 71 1 37 38
M  V30 72 1 37 66
M  V30 73 2 38 39
M  V30 74 1 38 67
M  V30 75 1 39 68
M  V30 END BOND
M  V30 END CTAB
M  END
> <s_m_entry_id>
145

> <s_m_entry_name>
result.6384

> <s_m_Source_Path>
D:\OneDrive - zju.edu.cn\DOC\A-Finished\LCK_VS\Planet\LCK-8617

> <s_m_Source_File>
glide-dock_SP_top1262_2_pv.maegz

> <i_m_Source_File_Index>
145

> <PLANET_affinity>
7.722

> <i_lp_mmshare_version>
54117

> <i_f3d_flags>
0

> <s_epik_input>
W2NIXTFbY0hdW2NIXVtjSF1jKGMxMiluKFtDSDNdKVtjSF1jMkMzPUMoQyg9TylbTkhdQzM9TyljNFtjSF1uKGMoYzQ1KVtjSF1bY0hdW2NIXVtjSF01KVtDSF02W0NIMl1bQ0gyXU4oW0NIMl1bQ0gyXTYpW0NIMl1jN25bY0hdW2NIXVtjSF1bY0hdNw==

> <s_epik_cmdline>
J2VwaWtfcHl0aG9uJywgJy1waCcsICc3LjAnLCAnLXRuJywgJzgnLCAnLW1hJywgJzUwMCcsICctaW1hZScsICc8aW5maWxlLm1hZT4nLCAnLW9tYWUnLCAnPG91dGZpbGUubWFlPic=

> <r_epik_Ionization_Penalty>
  0.1295

> <r_epik_Ionization_Penalty_Charging>
  0.0931

> <r_epik_Ionization_Penalty_Neutral>
  0.0363

> <r_epik_State_Penalty>
  0.1137

> <r_epik_Charging_Adjusted_Penalty>
0.206872

> <i_epik_Tot_Q>
1

> <i_epik_Tot_abs_Q>
1

> <s_lp_Force_Field>
S-OPLS

> <r_lp_Energy>
52.7904

> <b_lp_Chiralities_Consistent>
1

> <s_lp_Variant>
O=C(C(C1=CN(C)C2=C1C=CC=C2)=C3C4=CN(C5CCN(CC6=NC=CC=C6)CC5)C7=C4C=CC=C7)NC3=O-1

> <s_i_glide_gridfile>
glide-grid_1

> <i_i_glide_lignum>
1615

> <i_i_glide_rotatable_bonds>
5

> <r_i_docking_score>
-8.8514865189435

> <r_i_glide_ligand_efficiency>
-0.226961192793423

> <r_i_glide_ligand_efficiency_sa>
-0.769673393181286

> <r_i_glide_ligand_efficiency_ln>
-1.89800997404837

> <r_i_glide_gscore>
-8.9651865189435

> <r_i_glide_lipo>
-2.18907264587428

> <r_i_glide_hbond>
-0.732582259976204

> <r_i_glide_metal>
0

> <r_i_glide_rewards>
-2.14303026463412

> <r_i_glide_evdw>
-43.9840774536133

> <r_i_glide_ecoul>
-12.8859796524048

> <r_i_glide_erotb>
0.269188359643082

> <r_i_glide_esite>
-0.0375888875606023

> <r_i_glide_emodel>
-87.408759130706

> <r_i_glide_energy>
-56.8700571060181

> <r_i_glide_einternal>
8.08174324035645

> <i_i_glide_confnum>
185

> <i_i_glide_posenum>
393

> <r_i_glide_eff_state_penalty>
0.1137

> <s_m_subgroup_title>
glide-dock_SP_top1262_2_pv

> <s_m_subgroupid>
glide-dock_SP_top1262_2_pv

> <b_m_subgroup_collapsed>
0

$$$$
N#CCC1=CC=CC(C2=C3C(NC=C3C)=NC(NC4=CC=C(N5CCN(C)CC5)C(F)=C4)=N2)=C1
                    3D
 Schrodinger Suite 2021-3.
  0  0  0     0  0            999 V3000
M  V30 BEGIN CTAB
M  V30 COUNTS 61 65 0 0 0
M  V30 BEGIN ATOM
M  V30 1 N  21.6841 40.7513 89.1317 0
M  V30 2 C  22.4351 40.9657 88.2731 0
M  V30 3 C  23.3868 41.2328 87.1823 0
M  V30 4 C  24.4415 40.1439 87.0764 0
M  V30 5 C  25.4441 40.0451 88.0449 0
M  V30 6 C  26.4219 39.0578 87.9390 0
M  V30 7 C  26.3841 38.1549 86.8783 0
M  V30 8 C  25.3722 38.2152 85.9078 0
M  V30 9 C  24.4232 39.2426 86.0087 0
M  V30 10 C  25.3341 37.2415 84.7779 0
M  V30 11 N  26.5273 37.0032 84.1760 0
M  V30 12 C  26.5695 36.2027 83.0831 0
M  V30 13 N  25.5166 35.5612 82.5207 0
M  V30 14 C  24.3613 35.7804 83.1553 0
M  V30 15 C  24.1657 36.6083 84.3034 0
M  V30 16 N  23.1377 35.2792 82.7989 0
M  V30 17 C  22.1841 35.7931 83.6386 0
M  V30 18 C  22.7598 36.5407 84.6483 0
M  V30 19 C  22.0349 37.1623 85.8196 0
M  V30 20 N  27.7994 35.9791 82.4498 0
M  V30 21 C  29.1162 36.3355 82.8016 0
M  V30 22 C  29.4325 37.4272 83.6218 0
M  V30 23 C  30.7561 37.6980 83.9629 0
M  V30 24 C  31.8024 36.9081 83.4789 0
M  V30 25 C  31.4862 35.8242 82.6408 0
M  V30 26 F  32.4553 35.0014 82.1685 0
M  V30 27 C  30.1589 35.5563 82.3004 0
M  V30 28 N  33.0950 37.1692 83.9114 0
M  V30 29 C  34.2852 37.1595 83.0435 0
M  V30 30 C  35.3483 36.1120 83.4500 0
M  V30 31 N  35.7360 36.3504 84.9255 0 CHG=1
M  V30 32 C  36.8412 35.3715 85.3749 0
M  V30 33 C  34.4639 36.1784 85.7803 0
M  V30 34 C  33.4490 37.2578 85.3371 0
M  V30 35 H  22.8249 41.3255 86.2520 0
M  V30 36 H  23.8636 42.1959 87.3664 0
M  V30 37 H  25.4714 40.7367 88.8765 0
M  V30 38 H  27.2094 38.9911 88.6777 0
M  V30 39 H  27.1488 37.3979 86.8080 0
M  V30 40 H  23.6680 39.3442 85.2422 0
M  V30 41 H  22.9114 34.6468 82.0381 0
M  V30 42 H  21.1513 35.5526 83.4613 0
M  V30 43 H  21.0823 36.6666 86.0143 0
M  V30 44 H  22.6126 37.0919 86.7416 0
M  V30 45 H  21.8030 38.2139 85.6527 0
M  V30 46 H  27.6965 35.4570 81.5838 0
M  V30 47 H  28.6732 38.0944 83.9992 0
M  V30 48 H  30.9681 38.5391 84.6074 0
M  V30 49 H  29.9473 34.7147 81.6537 0
M  V30 50 H  33.9822 36.9606 82.0155 0
M  V30 51 H  34.7157 38.1625 83.0183 0
M  V30 52 H  36.2604 36.2107 82.8620 0
M  V30 53 H  34.9782 35.0893 83.3646 0
M  V30 54 H  36.4828 34.3549 85.2329 0
M  V30 55 H  37.7248 35.5668 84.7661 0
M  V30 56 H  37.0450 35.5662 86.4294 0
M  V30 57 H  34.7593 36.3017 86.8234 0
M  V30 58 H  34.0926 35.1584 85.6403 0
M  V30 59 H  33.8141 38.2627 85.5602 0
M  V30 60 H  32.5512 37.1407 85.9434 0
M  V30 61 H  36.0660 37.3006 85.0293 0
M  V30 END ATOM
M  V30 BEGIN BOND
M  V30 1 3 1 2
M  V30 2 1 2 3
M  V30 3 1 3 4
M  V30 4 1 3 35
M  V30 5 1 3 36
M  V30 6 2 4 5
M  V30 7 1 4 9
M  V30 8 1 5 6
M  V30 9 1 5 37
M  V30 10 2 6 7
M  V30 11 1 6 38
M  V30 12 1 7 8
M  V30 13 1 7 39
M  V30 14 2 8 9
M  V30 15 1 8 10
M  V30 16 1 9 40
M  V30 17 2 10 11
M  V30 18 1 10 15
M  V30 19 1 11 12
M  V30 20 2 12 13
M  V30 21 1 12 20
M  V30 22 1 13 14
M  V30 23 2 14 15
M  V30 24 1 14 16
M  V30 25 1 15 18
M  V30 26 1 16 17
M  V30 27 1 16 41
M  V30 28 2 17 18
M  V30 29 1 17 42
M  V30 30 1 18 19
M  V30 31 1 19 43
M  V30 32 1 19 44
M  V30 33 1 19 45
M  V30 34 1 20 21
M  V30 35 1 20 46
M  V30 36 2 21 22
M  V30 37 1 21 27
M  V30 38 1 22 23
M  V30 39 1 22 47
M  V30 40 2 23 24
M  V30 41 1 23 48
M  V30 42 1 24 25
M  V30 43 1 24 28
M  V30 44 1 25 26
M  V30 45 2 25 27
M  V30 46 1 27 49
M  V30 47 1 28 29
M  V30 48 1 28 34
M  V30 49 1 29 30
M  V30 50 1 29 50
M  V30 51 1 29 51
M  V30 52 1 30 31
M  V30 53 1 30 52
M  V30 54 1 30 53
M  V30 55 1 31 32
M  V30 56 1 31 33
M  V30 57 1 31 61
M  V30 58 1 32 54
M  V30 59 1 32 55
M  V30 60 1 32 56
M  V30 61 1 33 34
M  V30 62 1 33 57
M  V30 63 1 33 58
M  V30 64 1 34 59
M  V30 65 1 34 60
M  V30 END BOND
M  V30 END CTAB
M  END
> <s_m_entry_id>
146

> <s_m_entry_name>
result.2124

> <s_m_Source_Path>
D:\OneDrive - zju.edu.cn\DOC\A-Finished\LCK_VS\Planet\LCK-8617

> <s_m_Source_File>
glide-dock_SP_top1262_2_pv.maegz

> <i_m_Source_File_Index>
146

> <PLANET_affinity>
8.351

> <i_lp_mmshare_version>
54117

> <i_f3d_flags>
0

> <s_epik_input>
TiNDW0NIMl1jMVtjSF1bY0hdW2NIXWMoW2NIXTEpLWMoYyhjMjMpYyhbQ0gzXSlbY0hdW25IXTMpbmMobjIpW05IXWM0W2NIXVtjSF1jKGMoRilbY0hdNClONVtDSDJdW0NIMl1OKFtDSDNdKVtDSDJdW0NIMl01

> <s_epik_cmdline>
J2VwaWtfcHl0aG9uJywgJy1waCcsICc3LjAnLCAnLXRuJywgJzgnLCAnLW1hJywgJzUwMCcsICctaW1hZScsICc8aW5maWxlLm1hZT4nLCAnLW9tYWUnLCAnPG91dGZpbGUubWFlPic=

> <r_epik_Ionization_Penalty>
  0.0652

> <r_epik_Ionization_Penalty_Charging>
  0.0647

> <r_epik_Ionization_Penalty_Neutral>
  0.0004

> <r_epik_State_Penalty>
  0.0564

> <r_epik_Charging_Adjusted_Penalty>
0.121171

> <i_epik_Tot_Q>
1

> <i_epik_Tot_abs_Q>
1

> <s_lp_Force_Field>
S-OPLS

> <r_lp_Energy>
58.9637

> <b_lp_Chiralities_Consistent>
1

> <s_lp_Variant>
N#CCC1=CC=CC(C2=C3C(NC=C3C)=NC(NC4=CC=C(N5CCN(C)CC5)C(F)=C4)=N2)=C1-1

> <s_i_glide_gridfile>
glide-grid_1

> <i_i_glide_lignum>
912

> <i_i_glide_rotatable_bonds>
5

> <r_i_docking_score>
-8.84167954417262

> <r_i_glide_ligand_efficiency>
-0.260049398358018

> <r_i_glide_ligand_efficiency_sa>
-0.842459098845474

> <r_i_glide_ligand_efficiency_ln>
-1.9533750120186

> <r_i_glide_gscore>
-8.89807954417262

> <r_i_glide_lipo>
-2.48389558685421

> <r_i_glide_hbond>
-0.677871786037908

> <r_i_glide_metal>
0

> <r_i_glide_rewards>
-2.42073197432232

> <r_i_glide_evdw>
-38.7821960449219

> <r_i_glide_ecoul>
-10.8993196487427

> <r_i_glide_erotb>
0.337491295741265

> <r_i_glide_esite>
-0.0790637431419591

> <r_i_glide_emodel>
-80.5077346372488

> <r_i_glide_energy>
-49.6815156936646

> <r_i_glide_einternal>
2.51428627967834

> <i_i_glide_confnum>
240

> <i_i_glide_posenum>
346

> <r_i_glide_eff_state_penalty>
0.0564

> <s_m_subgroup_title>
glide-dock_SP_top1262_2_pv

> <s_m_subgroupid>
glide-dock_SP_top1262_2_pv

> <b_m_subgroup_collapsed>
0

$$$$
O[C@H]1[C@H](O[C@H]([C@@H]([C@H]1O)O)OC2=CC=C(C=C2[N+]([O-])=O)COC(N[C@@H]3[C...
                    3D
 Schrodinger Suite 2021-3.
  0  0  0     0  0            999 V3000
M  V30 BEGIN CTAB
M  V30 COUNTS 107 113 0 0 0
M  V30 BEGIN ATOM
M  V30 1 O  32.8819 33.8967 81.6432 0
M  V30 2 C  34.2124 33.3938 81.6950 0 CFG=1
M  V30 3 C  35.1222 34.1339 80.6877 0 CFG=1
M  V30 4 C  34.6241 34.0802 79.2243 0
M  V30 5 O  34.5995 32.7565 78.7128 0
M  V30 6 O  35.2248 35.5076 81.0707 0
M  V30 7 C  35.7640 35.7512 82.3508 0 CFG=2
M  V30 8 C  35.0371 34.9913 83.5014 0 CFG=2
M  V30 9 O  35.7539 35.1566 84.7195 0
M  V30 10 C  34.8239 33.5053 83.1103 0 CFG=1
M  V30 11 O  34.0403 32.7798 84.0435 0
M  V30 12 O  35.8139 37.1300 82.6150 0
M  V30 13 C  34.6775 37.9285 82.6340 0
M  V30 14 C  33.4130 37.4951 82.1933 0
M  V30 15 C  32.3041 38.3329 82.2456 0
M  V30 16 C  32.4335 39.6283 82.7355 0
M  V30 17 C  33.6798 40.0804 83.1695 0
M  V30 18 C  34.8069 39.2476 83.1135 0
M  V30 19 N  36.1113 39.7770 83.5647 0 CHG=1
M  V30 20 O  37.1234 39.4701 82.9415 0 CHG=-1
M  V30 21 O  36.1206 40.5332 84.5329 0
M  V30 22 C  31.2324 40.5499 82.7586 0
M  V30 23 O  30.6577 40.5895 84.0584 0
M  V30 24 C  29.4114 41.0626 84.2063 0
M  V30 25 O  28.5828 41.1557 83.2926 0
M  V30 26 N  29.2438 41.4872 85.5113 0
M  V30 27 C  28.1080 42.3149 85.9253 0 CFG=2
M  V30 28 C  28.0104 43.6954 85.2261 0 CFG=2
M  V30 29 O  29.2538 44.3952 85.2460 0
M  V30 30 C  26.8225 44.5176 85.7995 0 CFG=2
M  V30 31 C  26.7919 45.9575 85.2742 0
M  V30 32 O  26.7842 44.5618 87.2359 0
M  V30 33 C  26.7691 43.2984 87.8458 0 CFG=2
M  V30 34 C  28.0360 42.5240 87.4554 0
M  V30 35 O  25.6292 42.5586 87.4887 0
M  V30 36 C  25.0209 41.7450 88.5001 0 CFG=1
M  V30 37 C  24.0094 42.5496 89.3472 0
M  V30 38 C  22.6457 42.7455 88.6440 0 CFG=2
M  V30 39 C  22.0433 41.3410 88.3843 0
M  V30 40 O  22.8005 43.4671 87.4280 0
M  V30 41 C  21.7089 43.5603 89.5889 0
M  V30 42 O  21.1417 43.0221 90.5432 0
M  V30 43 C  21.4924 45.0537 89.3376 0
M  V30 44 C  24.3986 40.5004 87.8279 0
M  V30 45 C  22.9998 40.3536 87.6949 0
M  V30 46 C  25.2341 39.5525 87.2240 0
M  V30 47 O  26.5880 39.6896 87.4205 0
M  V30 48 C  24.7331 38.4941 86.4390 0
M  V30 49 C  23.3311 38.3294 86.3304 0
M  V30 50 C  22.4897 39.2580 86.9767 0
M  V30 51 O  21.1208 39.1133 86.9303 0
M  V30 52 C  22.7682 37.1804 85.5173 0
M  V30 53 O  21.5727 36.8632 85.5654 0
M  V30 54 C  23.6926 36.5694 84.5043 0
M  V30 55 C  25.0925 36.7737 84.5564 0
M  V30 56 C  25.6729 37.5662 85.6986 0
M  V30 57 O  26.8835 37.5701 85.9337 0
M  V30 58 C  25.9196 36.2520 83.5317 0
M  V30 59 O  27.2861 36.4806 83.5855 0
M  V30 60 C  28.1635 35.9113 82.6227 0
M  V30 61 C  25.3334 35.5321 82.4814 0
M  V30 62 C  23.9641 35.3021 82.4558 0
M  V30 63 C  23.1519 35.8093 83.4578 0
M  V30 64 H  32.5171 33.7579 80.7608 0
M  V30 65 H  34.1538 32.3405 81.4154 0
M  V30 66 H  36.1209 33.6949 80.7087 0
M  V30 67 H  33.6359 34.5313 79.1248 0
M  V30 68 H  35.2964 34.6671 78.5959 0
M  V30 69 H  33.7872 32.3044 78.9904 0
M  V30 70 H  36.8022 35.4266 82.2593 0
M  V30 71 H  34.0581 35.4426 83.6588 0
M  V30 72 H  35.4308 34.5289 85.3895 0
M  V30 73 H  35.7873 32.9932 83.0879 0
M  V30 74 H  34.4734 32.7693 84.9118 0
M  V30 75 H  33.2587 36.5019 81.8037 0
M  V30 76 H  31.3480 37.9690 81.8982 0
M  V30 77 H  33.7728 41.0905 83.5452 0
M  V30 78 H  30.4971 40.2022 82.0398 0
M  V30 79 H  31.5367 41.5538 82.4487 0
M  V30 80 H  30.0187 41.3723 86.1475 0
M  V30 81 H  27.2246 41.7358 85.6409 0
M  V30 82 H  27.8029 43.5413 84.1655 0
M  V30 83 H  29.8521 44.0277 84.5760 0
M  V30 84 H  25.8966 44.0420 85.4641 0
M  V30 85 H  26.8829 45.9572 84.1881 0
M  V30 86 H  25.8649 46.4525 85.5582 0
M  V30 87 H  27.6206 46.5418 85.6762 0
M  V30 88 H  26.7436 43.5722 88.9031 0
M  V30 89 H  28.8968 43.1070 87.7847 0
M  V30 90 H  28.0691 41.5871 88.0058 0
M  V30 91 H  25.8069 41.3863 89.1682 0
M  V30 92 H  23.8414 42.0068 90.2798 0
M  V30 93 H  24.4431 43.5137 89.6177 0
M  V30 94 H  21.1199 41.4517 87.8121 0
M  V30 95 H  21.7588 40.8692 89.3253 0
M  V30 96 H  21.9332 43.6366 87.0429 0
M  V30 97 H  20.8831 45.2002 88.4436 0
M  V30 98 H  20.9682 45.5107 90.1763 0
M  V30 99 H  22.4471 45.5608 89.2010 0
M  V30 100 H  27.0797 39.0035 86.9532 0
M  V30 101 H  20.8606 38.3309 86.4285 0
M  V30 102 H  29.1944 36.1261 82.9050 0
M  V30 103 H  28.0604 34.8276 82.5549 0
M  V30 104 H  27.9963 36.3533 81.6420 0
M  V30 105 H  25.9355 35.1570 81.6686 0
M  V30 106 H  23.5137 34.7525 81.6430 0
M  V30 107 H  22.0869 35.6244 83.3911 0
M  V30 END ATOM
M  V30 BEGIN BOND
M  V30 1 1 1 2
M  V30 2 1 1 64
M  V30 3 1 2 3
M  V30 4 1 2 10
M  V30 5 1 2 65
M  V30 6 1 3 4
M  V30 7 1 3 6
M  V30 8 1 3 66
M  V30 9 1 4 5
M  V30 10 1 4 67
M  V30 11 1 4 68
M  V30 12 1 5 69
M  V30 13 1 6 7
M  V30 14 1 7 8
M  V30 15 1 7 12
M  V30 16 1 7 70
M  V30 17 1 8 9
M  V30 18 1 8 10
M  V30 19 1 8 71
M  V30 20 1 9 72
M  V30 21 1 10 11
M  V30 22 1 10 73
M  V30 23 1 11 74
M  V30 24 1 12 13
M  V30 25 2 13 14
M  V30 26 1 13 18
M  V30 27 1 14 15
M  V30 28 1 14 75
M  V30 29 2 15 16
M  V30 30 1 15 76
M  V30 31 1 16 17
M  V30 32 1 16 22
M  V30 33 2 17 18
M  V30 34 1 17 77
M  V30 35 1 18 19
M  V30 36 1 19 20
M  V30 37 2 19 21
M  V30 38 1 22 23
M  V30 39 1 22 78
M  V30 40 1 22 79
M  V30 41 1 23 24
M  V30 42 2 24 25
M  V30 43 1 24 26
M  V30 44 1 26 27
M  V30 45 1 26 80
M  V30 46 1 27 28
M  V30 47 1 27 34
M  V30 48 1 27 81
M  V30 49 1 28 29
M  V30 50 1 28 30
M  V30 51 1 28 82
M  V30 52 1 29 83
M  V30 53 1 30 31
M  V30 54 1 30 32
M  V30 55 1 30 84
M  V30 56 1 31 85
M  V30 57 1 31 86
M  V30 58 1 31 87
M  V30 59 1 32 33
M  V30 60 1 33 34
M  V30 61 1 33 35
M  V30 62 1 33 88
M  V30 63 1 34 89
M  V30 64 1 34 90
M  V30 65 1 35 36
M  V30 66 1 36 37
M  V30 67 1 36 44
M  V30 68 1 36 91
M  V30 69 1 37 38
M  V30 70 1 37 92
M  V30 71 1 37 93
M  V30 72 1 38 39
M  V30 73 1 38 40
M  V30 74 1 38 41
M  V30 75 1 39 45
M  V30 76 1 39 94
M  V30 77 1 39 95
M  V30 78 1 40 96
M  V30 79 2 41 42
M  V30 80 1 41 43
M  V30 81 1 43 97
M  V30 82 1 43 98
M  V30 83 1 43 99
M  V30 84 2 44 45
M  V30 85 1 44 46
M  V30 86 1 45 50
M  V30 87 1 46 47
M  V30 88 2 46 48
M  V30 89 1 47 100
M  V30 90 1 48 49
M  V30 91 1 48 56
M  V30 92 2 49 50
M  V30 93 1 49 52
M  V30 94 1 50 51
M  V30 95 1 51 101
M  V30 96 2 52 53
M  V30 97 1 52 54
M  V30 98 2 54 55
M  V30 99 1 54 63
M  V30 100 1 55 56
M  V30 101 1 55 58
M  V30 102 2 56 57
M  V30 103 1 58 59
M  V30 104 2 58 61
M  V30 105 1 59 60
M  V30 106 1 60 102
M  V30 107 1 60 103
M  V30 108 1 60 104
M  V30 109 1 61 62
M  V30 110 1 61 105
M  V30 111 2 62 63
M  V30 112 1 62 106
M  V30 113 1 63 107
M  V30 END BOND
M  V30 END CTAB
M  END
> <s_m_entry_id>
149

> <s_m_entry_name>
result.7058

> <s_m_Source_Path>
D:\OneDrive - zju.edu.cn\DOC\A-Finished\LCK_VS\Planet\LCK-8617

> <s_m_Source_File>
glide-dock_SP_top1262_2_pv.maegz

> <i_m_Source_File_Index>
149

> <PLANET_affinity>
8.392

> <i_lp_mmshare_version>
54117

> <i_f3d_flags>
0

> <s_epik_input>
W09IXVtDQEhdMVtDQEBIXShbQ0gyXVtPSF0pT1tDQEhdKFtDQEhdKFtPSF0pW0NASF0xW09IXSlPYzJbY0hdW2NIXWMoW2NIXWMyW04rXShbTy1dKT1PKVtDSDJdT0MoPU8pW05IXVtDQEBIXTNbQ0BIXShbT0hdKVtDQEhdKFtDSDNdKU9bQ0BIXShbQ0gyXTMpT1tDQEhdNFtDSDJdW0NAXShbT0hdKShDKD1PKVtDSDNdKVtDSDJdYyhjNDUpYyhbT0hdKWM2YyhjNVtPSF0pQyg9TyljN2MoQzY9TylbY0hdW2NIXVtjSF1jN09bQ0gzXQ==

> <s_epik_cmdline>
J2VwaWtfcHl0aG9uJywgJy1waCcsICc3LjAnLCAnLXRuJywgJzgnLCAnLW1hJywgJzUwMCcsICctaW1hZScsICc8aW5maWxlLm1hZT4nLCAnLW9tYWUnLCAnPG91dGZpbGUubWFlPic=

> <r_epik_Ionization_Penalty>
  0.0006

> <r_epik_Ionization_Penalty_Charging>
  0.0000

> <r_epik_Ionization_Penalty_Neutral>
  0.0006

> <r_epik_State_Penalty>
  0.0003

> <r_epik_Charging_Adjusted_Penalty>
0.000255984

> <i_epik_Tot_Q>
0

> <i_epik_Tot_abs_Q>
2

> <s_epik_Chemistry_Notes>
This compound has an ester and may undergo hydrolysis at high or low pH. This compound contains an acetal/aminal-like group ( X-CH(R)-Y where X, Y are N, S, or O) that may be acid/base labile, releasing an aldehyde.

> <s_lp_Force_Field>
S-OPLS

> <r_lp_Energy>
82.531

> <b_lp_Chiralities_Consistent>
1

> <s_lp_Variant>
O[C@H]1[C@H](O[C@H]([C@@H]([C@H]1O)O)OC2=CC=C(C=C2[N+]([O-])=O)COC(N[C@@H]3[C...-1

> <s_i_glide_gridfile>
glide-grid_1

> <i_i_glide_lignum>
882

> <i_i_glide_rotatable_bonds>
21

> <r_i_docking_score>
-8.82742763008824

> <r_i_glide_ligand_efficiency>
-0.14011789889029

> <r_i_glide_ligand_efficiency_sa>
-0.557537134764721

> <r_i_glide_ligand_efficiency_ln>
-1.71635162205475

> <r_i_glide_gscore>
-8.82772763008824

> <r_i_glide_lipo>
-2.27733547105717

> <r_i_glide_hbond>
-0.477912488562321

> <r_i_glide_metal>
0

> <r_i_glide_rewards>
-0.510777081940328

> <r_i_glide_evdw>
-47.3129806518555

> <r_i_glide_ecoul>
-21.0768013000488

> <r_i_glide_erotb>
0.064789549466438

> <r_i_glide_esite>
-0.0993229103947598

> <r_i_glide_emodel>
-105.637208964596

> <r_i_glide_energy>
-68.3897819519043

> <r_i_glide_einternal>
16.2107410430908

> <i_i_glide_confnum>
581

> <i_i_glide_posenum>
204

> <r_i_glide_eff_state_penalty>
0.0003

> <r_lp_tautomer_probability>
0.99995

> <s_m_subgroup_title>
glide-dock_SP_top1262_2_pv

> <s_m_subgroupid>
glide-dock_SP_top1262_2_pv

> <b_m_subgroup_collapsed>
0

$$$$
O=C(NCC1=CC(F)=CC=C1OC2=CC3=C(N(CCO)N=C3)C=C2)NC4=CC(C(C)(C)C)=NN4C5=CC=C(C)C=C5
                    3D
 Schrodinger Suite 2021-3.
  0  0  0     0  0            999 V3000
M  V30 BEGIN CTAB
M  V30 COUNTS 74 78 0 0 0
M  V30 BEGIN ATOM
M  V30 1 C  26.7998 43.2707 88.6173 0
M  V30 2 C  27.6990 43.5967 87.6041 0
M  V30 3 C  27.5945 42.9835 86.3538 0
M  V30 4 C  28.5588 43.3528 85.2403 0
M  V30 5 C  26.5891 42.0443 86.1155 0
M  V30 6 C  25.6840 41.7257 87.1239 0
M  V30 7 C  25.7777 42.3388 88.3811 0
M  V30 8 N  24.8312 42.0444 89.4028 0
M  V30 9 N  25.2387 41.9768 90.6882 0
M  V30 10 C  24.1909 41.6364 91.4178 0
M  V30 11 C  24.2837 41.4748 92.9419 0
M  V30 12 C  25.6416 40.8629 93.3614 0
M  V30 13 C  23.1651 40.5350 93.4594 0
M  V30 14 C  24.1200 42.8597 93.6074 0
M  V30 15 C  23.0740 41.4767 90.5912 0
M  V30 16 C  23.4849 41.7356 89.2927 0
M  V30 17 N  22.7912 41.7386 88.0903 0
M  V30 18 C  21.6086 41.1288 87.8939 0
M  V30 19 O  20.8828 40.6947 88.7887 0
M  V30 20 N  21.3458 40.9752 86.5879 0
M  V30 21 C  20.3285 40.0877 86.0130 0
M  V30 22 C  20.2705 38.6482 86.5470 0
M  V30 23 C  19.0343 38.1391 86.9629 0
M  V30 24 C  18.9314 36.8343 87.4393 0
M  V30 25 F  17.7321 36.3565 87.8319 0
M  V30 26 C  20.0618 36.0249 87.5117 0
M  V30 27 C  21.3006 36.5232 87.1131 0
M  V30 28 C  21.4150 37.8309 86.6197 0
M  V30 29 O  22.6417 38.3622 86.2827 0
M  V30 30 C  23.6070 37.6596 85.5945 0
M  V30 31 C  23.3101 36.6606 84.6554 0
M  V30 32 C  24.9268 38.0604 85.7989 0
M  V30 33 C  25.9954 37.5235 85.0846 0
M  V30 34 C  25.6877 36.5388 84.1380 0
M  V30 35 C  24.3596 36.1002 83.9109 0
M  V30 36 N  26.4703 35.8421 83.2324 0
M  V30 37 N  25.7196 35.0429 82.4436 0
M  V30 38 C  24.4795 35.1556 82.8494 0
M  V30 39 C  27.8358 36.1816 82.8456 0
M  V30 40 C  28.7547 35.0158 82.4846 0
M  V30 41 O  29.9868 35.5516 82.0430 0
M  V30 42 H  26.8886 43.7611 89.5776 0
M  V30 43 H  28.4729 44.3283 87.7917 0
M  V30 44 H  28.0500 43.3544 84.2754 0
M  V30 45 H  29.3840 42.6410 85.1932 0
M  V30 46 H  28.9664 44.3564 85.3761 0
M  V30 47 H  26.5079 41.5656 85.1500 0
M  V30 48 H  24.9222 40.9906 86.9158 0
M  V30 49 H  26.4852 41.4868 93.0604 0
M  V30 50 H  25.6897 40.7543 94.4424 0
M  V30 51 H  25.7929 39.8759 92.9167 0
M  V30 52 H  22.1690 40.9421 93.2694 0
M  V30 53 H  23.2116 39.5555 92.9771 0
M  V30 54 H  23.2447 40.3676 94.5346 0
M  V30 55 H  23.2042 43.3580 93.2801 0
M  V30 56 H  24.0730 42.7811 94.6941 0
M  V30 57 H  24.9518 43.5218 93.3570 0
M  V30 58 H  22.0780 41.2073 90.9095 0
M  V30 59 H  23.3011 42.0644 87.2854 0
M  V30 60 H  21.7762 41.6225 85.9440 0
M  V30 61 H  19.3567 40.5802 86.0925 0
M  V30 62 H  20.5484 40.0294 84.9455 0
M  V30 63 H  18.1451 38.7520 86.9168 0
M  V30 64 H  19.9779 35.0158 87.8882 0
M  V30 65 H  22.1761 35.8959 87.1939 0
M  V30 66 H  22.2872 36.3701 84.4692 0
M  V30 67 H  25.1227 38.8279 86.5298 0
M  V30 68 H  27.0063 37.8657 85.2526 0
M  V30 69 H  23.6829 34.6023 82.3687 0
M  V30 70 H  27.6889 36.7561 81.9528 0
M  V30 71 H  28.2755 36.7768 83.6465 0
M  V30 72 H  28.9154 34.3942 83.3560 0
M  V30 73 H  28.3233 34.3564 81.7289 0
M  V30 74 H  30.5023 34.8519 81.6261 0
M  V30 END ATOM
M  V30 BEGIN BOND
M  V30 1 2 1 2
M  V30 2 1 1 7
M  V30 3 1 1 42
M  V30 4 1 2 3
M  V30 5 1 2 43
M  V30 6 1 3 4
M  V30 7 2 3 5
M  V30 8 1 4 44
M  V30 9 1 4 45
M  V30 10 1 4 46
M  V30 11 1 5 6
M  V30 12 1 5 47
M  V30 13 2 6 7
M  V30 14 1 6 48
M  V30 15 1 7 8
M  V30 16 1 8 9
M  V30 17 1 8 16
M  V30 18 2 9 10
M  V30 19 1 10 11
M  V30 20 1 10 15
M  V30 21 1 11 12
M  V30 22 1 11 13
M  V30 23 1 11 14
M  V30 24 1 12 49
M  V30 25 1 12 50
M  V30 26 1 12 51
M  V30 27 1 13 52
M  V30 28 1 13 53
M  V30 29 1 13 54
M  V30 30 1 14 55
M  V30 31 1 14 56
M  V30 32 1 14 57
M  V30 33 2 15 16
M  V30 34 1 15 58
M  V30 35 1 16 17
M  V30 36 1 17 18
M  V30 37 1 17 59
M  V30 38 2 18 19
M  V30 39 1 18 20
M  V30 40 1 20 21
M  V30 41 1 20 60
M  V30 42 1 21 22
M  V30 43 1 21 61
M  V30 44 1 21 62
M  V30 45 2 22 23
M  V30 46 1 22 28
M  V30 47 1 23 24
M  V30 48 1 23 63
M  V30 49 1 24 25
M  V30 50 2 24 26
M  V30 51 1 26 27
M  V30 52 1 26 64
M  V30 53 2 27 28
M  V30 54 1 27 65
M  V30 55 1 28 29
M  V30 56 1 29 30
M  V30 57 2 30 31
M  V30 58 1 30 32
M  V30 59 1 31 35
M  V30 60 1 31 66
M  V30 61 2 32 33
M  V30 62 1 32 67
M  V30 63 1 33 34
M  V30 64 1 33 68
M  V30 65 2 34 35
M  V30 66 1 34 36
M  V30 67 1 35 38
M  V30 68 1 36 37
M  V30 69 1 36 39
M  V30 70 2 37 38
M  V30 71 1 38 69
M  V30 72 1 39 40
M  V30 73 1 39 70
M  V30 74 1 39 71
M  V30 75 1 40 41
M  V30 76 1 40 72
M  V30 77 1 40 73
M  V30 78 1 41 74
M  V30 END BOND
M  V30 END CTAB
M  END
> <s_m_entry_id>
151

> <s_m_entry_name>
result.2254

> <s_m_Source_Path>
D:\OneDrive - zju.edu.cn\DOC\A-Finished\LCK_VS\Planet\LCK-8617

> <s_m_Source_File>
glide-dock_SP_top1262_2_pv.maegz

> <i_m_Source_File_Index>
151

> <PLANET_affinity>
7.283

> <i_lp_mmshare_version>
54117

> <i_f3d_flags>
0

> <s_epik_input>
W0NIM11jMVtjSF1bY0hdYyhbY0hdW2NIXTEpLW4ybmMoQyhbQ0gzXSkoW0NIM10pW0NIM10pW2NIXWMyW05IXUMoPU8pW05IXVtDSDJdYzNbY0hdYyhGKVtjSF1bY0hdYzNPYyhbY0hdW2NIXTQpW2NIXWMoYzQ1KVtjSF1ubjVbQ0gyXVtDSDJdW09IXQ==

> <s_epik_cmdline>
J2VwaWtfcHl0aG9uJywgJy1waCcsICc3LjAnLCAnLXRuJywgJzgnLCAnLW1hJywgJzUwMCcsICctaW1hZScsICc8aW5maWxlLm1hZT4nLCAnLW9tYWUnLCAnPG91dGZpbGUubWFlPic=

> <r_epik_Ionization_Penalty>
  0.0000

> <r_epik_Ionization_Penalty_Charging>
  0.0000

> <r_epik_Ionization_Penalty_Neutral>
  0.0000

> <r_epik_State_Penalty>
  0.0000

> <r_epik_Charging_Adjusted_Penalty>
0

> <i_epik_Tot_Q>
0

> <i_epik_Tot_abs_Q>
0

> <s_lp_Force_Field>
S-OPLS

> <r_lp_Energy>
43.6677

> <b_lp_Chiralities_Consistent>
1

> <s_lp_Variant>
O=C(NCC1=CC(F)=CC=C1OC2=CC3=C(N(CCO)N=C3)C=C2)NC4=CC(C(C)(C)C)=NN4C5=CC=C(C)C=C5-1

> <s_i_glide_gridfile>
glide-grid_1

> <i_i_glide_lignum>
2266

> <i_i_glide_rotatable_bonds>
12

> <r_i_docking_score>
-8.81442551809726

> <r_i_glide_ligand_efficiency>
-0.214985988246275

> <r_i_glide_ligand_efficiency_sa>
-0.741318390193876

> <r_i_glide_ligand_efficiency_ln>
-1.87000970672763

> <r_i_glide_gscore>
-8.81442551809726

> <r_i_glide_lipo>
-3.70087475464415

> <r_i_glide_hbond>
-0.521536046520418

> <r_i_glide_metal>
0

> <r_i_glide_rewards>
-1.52303472016048

> <r_i_glide_evdw>
-49.0219345092773

> <r_i_glide_ecoul>
-7.63395357131958

> <r_i_glide_erotb>
0.594393138672896

> <r_i_glide_esite>
-0.0671833742832986

> <r_i_glide_emodel>
-88.3827663867276

> <r_i_glide_energy>
-56.6558880805969

> <r_i_glide_einternal>
5.8329610824585

> <i_i_glide_confnum>
90

> <i_i_glide_posenum>
22

> <r_i_glide_eff_state_penalty>
0

> <r_lp_tautomer_probability>
1

> <s_m_subgroup_title>
glide-dock_SP_top1262_2_pv

> <s_m_subgroupid>
glide-dock_SP_top1262_2_pv

> <b_m_subgroup_collapsed>
0

$$$$
O=C(N1CC2=C(NN=C2NC(C3=CC=C(N4CCN(CC4)C)C=C3)=O)C1)[C@@H](C5=CC=CC=C5)OC
                    3D
 Schrodinger Suite 2021-3.
  0  0  0     0  0            999 V3000
M  V30 BEGIN CTAB
M  V30 COUNTS 66 70 0 0 0
M  V30 BEGIN ATOM
M  V30 1 C  19.7569 38.9078 87.0933 0
M  V30 2 C  19.5001 40.2683 87.2416 0
M  V30 3 C  20.5573 41.1558 87.4172 0
M  V30 4 C  21.8707 40.6943 87.4520 0
M  V30 5 C  22.1294 39.3338 87.3057 0
M  V30 6 C  21.0745 38.4319 87.1279 0
M  V30 7 C  21.3734 36.9417 86.9449 0 CFG=1
M  V30 8 O  20.3755 36.1838 87.6455 0
M  V30 9 C  20.6278 34.7866 87.7988 0
M  V30 10 C  21.3608 36.5562 85.4427 0
M  V30 11 O  20.2744 36.3567 84.8877 0
M  V30 12 N  22.5294 36.3370 84.7942 0
M  V30 13 C  23.8809 36.6973 85.2711 0
M  V30 14 C  22.5340 35.7624 83.4436 0
M  V30 15 C  23.9849 35.7843 83.0971 0
M  V30 16 C  24.7507 36.3509 84.0924 0
M  V30 17 N  24.6628 35.4205 82.0453 0
M  V30 18 N  25.9154 35.7809 82.3414 0
M  V30 19 C  26.0378 36.3763 83.5692 0
M  V30 20 N  27.2634 36.7684 84.0437 0
M  V30 21 C  27.8232 37.9672 83.7880 0
M  V30 22 O  27.2442 38.9216 83.2639 0
M  V30 23 C  29.2590 38.0773 84.2321 0
M  V30 24 C  29.7076 39.1850 84.9551 0
M  V30 25 C  31.0332 39.2470 85.3887 0
M  V30 26 C  31.9474 38.2252 85.0868 0
M  V30 27 C  31.4970 37.1571 84.3001 0
M  V30 28 C  30.1702 37.0725 83.8932 0
M  V30 29 N  33.2742 38.2861 85.5281 0
M  V30 30 C  34.3579 37.4063 85.0509 0
M  V30 31 C  34.6531 36.2528 86.0310 0
M  V30 32 N  35.1769 36.8792 87.3396 0 CHG=1
M  V30 33 C  35.5142 35.7768 88.3685 0
M  V30 34 C  34.0980 37.8304 87.8999 0
M  V30 35 C  33.6829 38.8722 86.8231 0
M  V30 36 H  18.9327 38.2240 86.9450 0
M  V30 37 H  18.4842 40.6362 87.2136 0
M  V30 38 H  20.3567 42.2145 87.5161 0
M  V30 39 H  22.6843 41.3923 87.5811 0
M  V30 40 H  23.1519 38.9873 87.3306 0
M  V30 41 H  22.3395 36.7320 87.4035 0
M  V30 42 H  19.8581 34.3566 88.4384 0
M  V30 43 H  20.5988 34.2572 86.8447 0
M  V30 44 H  21.5933 34.6002 88.2715 0
M  V30 45 H  23.9360 37.7567 85.5202 0
M  V30 46 H  24.1480 36.1189 86.1552 0
M  V30 47 H  22.0987 34.7600 83.4436 0
M  V30 48 H  21.9379 36.3717 82.7648 0
M  V30 49 H  26.6833 35.6273 81.6988 0
M  V30 50 H  27.7296 36.1577 84.6966 0
M  V30 51 H  29.0316 39.9906 85.2066 0
M  V30 52 H  31.3424 40.1142 85.9508 0
M  V30 53 H  32.1503 36.3433 84.0278 0
M  V30 54 H  29.8651 36.2162 83.3078 0
M  V30 55 H  34.1322 36.9980 84.0670 0
M  V30 56 H  35.2526 38.0097 84.8850 0
M  V30 57 H  35.4335 35.5858 85.6570 0
M  V30 58 H  33.7697 35.6544 86.2700 0
M  V30 59 H  34.6141 35.1860 88.5498 0
M  V30 60 H  36.3019 35.1606 87.9342 0
M  V30 61 H  35.8623 36.2646 89.2801 0
M  V30 62 H  34.5379 38.3175 88.7711 0
M  V30 63 H  33.2755 37.2053 88.2350 0
M  V30 64 H  34.4838 39.5933 86.6519 0
M  V30 65 H  32.8673 39.4523 87.2527 0
M  V30 66 H  36.0041 37.4178 87.1181 0
M  V30 END ATOM
M  V30 BEGIN BOND
M  V30 1 2 1 2
M  V30 2 1 1 6
M  V30 3 1 1 36
M  V30 4 1 2 3
M  V30 5 1 2 37
M  V30 6 2 3 4
M  V30 7 1 3 38
M  V30 8 1 4 5
M  V30 9 1 4 39
M  V30 10 2 5 6
M  V30 11 1 5 40
M  V30 12 1 6 7
M  V30 13 1 7 8
M  V30 14 1 7 10
M  V30 15 1 7 41
M  V30 16 1 8 9
M  V30 17 1 9 42
M  V30 18 1 9 43
M  V30 19 1 9 44
M  V30 20 2 10 11
M  V30 21 1 10 12
M  V30 22 1 12 13
M  V30 23 1 12 14
M  V30 24 1 13 45
M  V30 25 1 13 46
M  V30 26 1 13 16
M  V30 27 1 14 47
M  V30 28 1 14 48
M  V30 29 1 14 15
M  V30 30 2 15 17
M  V30 31 1 15 16
M  V30 32 2 16 19
M  V30 33 1 17 18
M  V30 34 1 18 49
M  V30 35 1 18 19
M  V30 36 1 19 20
M  V30 37 1 20 21
M  V30 38 1 20 50
M  V30 39 2 21 22
M  V30 40 1 21 23
M  V30 41 2 23 24
M  V30 42 1 23 28
M  V30 43 1 24 25
M  V30 44 1 24 51
M  V30 45 2 25 26
M  V30 46 1 25 52
M  V30 47 1 26 27
M  V30 48 1 26 29
M  V30 49 2 27 28
M  V30 50 1 27 53
M  V30 51 1 28 54
M  V30 52 1 29 30
M  V30 53 1 29 35
M  V30 54 1 30 31
M  V30 55 1 30 55
M  V30 56 1 30 56
M  V30 57 1 31 32
M  V30 58 1 31 57
M  V30 59 1 31 58
M  V30 60 1 32 33
M  V30 61 1 32 34
M  V30 62 1 32 66
M  V30 63 1 33 59
M  V30 64 1 33 60
M  V30 65 1 33 61
M  V30 66 1 34 35
M  V30 67 1 34 62
M  V30 68 1 34 63
M  V30 69 1 35 64
M  V30 70 1 35 65
M  V30 END BOND
M  V30 END CTAB
M  END
> <s_m_entry_id>
158

> <s_m_entry_name>
result.6187

> <s_m_Source_Path>
D:\OneDrive - zju.edu.cn\DOC\A-Finished\LCK_VS\Planet\LCK-8617

> <s_m_Source_File>
glide-dock_SP_top1262_2_pv.maegz

> <i_m_Source_File_Index>
158

> <PLANET_affinity>
8.259

> <i_lp_mmshare_version>
54117

> <i_f3d_flags>
0

> <s_epik_input>
W2NIXTFbY0hdW2NIXVtjSF1bY0hdYzFbQ0BASF0oT1tDSDNdKUMoPU8pTihbQ0gyXTIpW0NIMl1jKGMyMyljKG5bbkhdMylbTkhdQyg9TyljNFtjSF1bY0hdYyhbY0hdW2NIXTQpTjVbQ0gyXVtDSDJdTihbQ0gzXSlbQ0gyXVtDSDJdNQ==

> <s_epik_cmdline>
J2VwaWtfcHl0aG9uJywgJy1waCcsICc3LjAnLCAnLXRuJywgJzgnLCAnLW1hJywgJzUwMCcsICctaW1hZScsICc8aW5maWxlLm1hZT4nLCAnLW9tYWUnLCAnPG91dGZpbGUubWFlPic=

> <r_epik_Ionization_Penalty>
  0.0648

> <r_epik_Ionization_Penalty_Charging>
  0.0647

> <r_epik_Ionization_Penalty_Neutral>
  0.0000

> <r_epik_State_Penalty>
  0.4671

> <r_epik_Charging_Adjusted_Penalty>
0.53185

> <i_epik_Tot_Q>
1

> <i_epik_Tot_abs_Q>
1

> <s_lp_Force_Field>
S-OPLS

> <r_lp_Energy>
70.7482

> <b_lp_Chiralities_Consistent>
1

> <s_lp_Variant>
O=C(N1CC2=C(NN=C2NC(C3=CC=C(N4CCN(CC4)C)C=C3)=O)C1)[C@@H](C5=CC=CC=C5)OC-2

> <s_i_glide_gridfile>
glide-grid_1

> <i_i_glide_lignum>
1013

> <i_i_glide_rotatable_bonds>
8

> <r_i_docking_score>
-8.77590781115048

> <r_i_glide_ligand_efficiency>
-0.250740223175728

> <r_i_glide_ligand_efficiency_sa>
-0.820187895667274

> <r_i_glide_ligand_efficiency_ln>
-1.92650653532743

> <r_i_glide_gscore>
-9.24300781115048

> <r_i_glide_lipo>
-2.74317171871365

> <r_i_glide_hbond>
-0.759949064961729

> <r_i_glide_metal>
0

> <r_i_glide_rewards>
-1.94779668208849

> <r_i_glide_evdw>
-44.1118583679199

> <r_i_glide_ecoul>
-13.3130989074707

> <r_i_glide_erotb>
0.438592976131946

> <r_i_glide_esite>
-0.0281255670019564

> <r_i_glide_emodel>
-91.603610908241

> <r_i_glide_energy>
-57.4249572753906

> <r_i_glide_einternal>
8.93467044830322

> <i_i_glide_confnum>
172

> <i_i_glide_posenum>
395

> <r_i_glide_eff_state_penalty>
0.4671

> <r_lp_tautomer_probability>
0.5

> <s_m_subgroup_title>
glide-dock_SP_top1262_2_pv

> <s_m_subgroupid>
glide-dock_SP_top1262_2_pv

> <b_m_subgroup_collapsed>
0

$$$$
NC1=C2C(C3=CC4=C(N=C3)NC=C4)=NN(C2=NC=N1)C5CCCC5
                    3D
 Schrodinger Suite 2021-3.
  0  0  0     0  0            999 V3000
M  V30 BEGIN CTAB
M  V30 COUNTS 41 45 0 0 0
M  V30 BEGIN ATOM
M  V30 1 N  22.5108 35.1570 83.2435 0
M  V30 2 C  23.7872 35.6607 83.4442 0
M  V30 3 N  24.7665 35.1552 82.6540 0
M  V30 4 C  26.0329 35.5746 82.8981 0
M  V30 5 N  26.4457 36.4453 83.8537 0
M  V30 6 C  25.4408 36.9374 84.5904 0
M  V30 7 C  24.0688 36.6186 84.4413 0
M  V30 8 N  25.5164 37.8244 85.6475 0
M  V30 9 C  26.7112 38.3977 86.2762 0
M  V30 10 C  27.5540 39.2531 85.3179 0
M  V30 11 C  28.4089 40.1625 86.2155 0
M  V30 12 C  27.7966 40.0976 87.6237 0
M  V30 13 C  26.4768 39.3345 87.4775 0
M  V30 14 N  24.2880 38.1068 86.1175 0
M  V30 15 C  23.3980 37.4464 85.4138 0
M  V30 16 C  21.9457 37.7119 85.6605 0
M  V30 17 C  21.0049 37.6543 84.6258 0
M  V30 18 C  21.5047 38.0987 86.9356 0
M  V30 19 N  20.2413 38.4891 87.2433 0
M  V30 20 C  19.3906 38.4720 86.2173 0
M  V30 21 C  19.6866 38.0563 84.8895 0
M  V30 22 N  18.0773 38.8745 86.2394 0
M  V30 23 C  17.5218 38.6945 84.9959 0
M  V30 24 C  18.4760 38.1891 84.1309 0
M  V30 25 H  21.7860 35.4108 83.8937 0
M  V30 26 H  22.3610 34.4301 82.5483 0
M  V30 27 H  26.8098 35.1512 82.2775 0
M  V30 28 H  27.2829 37.5414 86.6202 0
M  V30 29 H  28.1650 38.6486 84.6450 0
M  V30 30 H  26.9034 39.8830 84.7072 0
M  V30 31 H  29.4446 39.8190 86.2397 0
M  V30 32 H  28.4220 41.1849 85.8334 0
M  V30 33 H  28.4698 39.5567 88.2924 0
M  V30 34 H  27.6486 41.0900 88.0512 0
M  V30 35 H  25.6883 40.0574 87.2578 0
M  V30 36 H  26.2019 38.7948 88.3858 0
M  V30 37 H  21.2961 37.3826 83.6290 0
M  V30 38 H  22.2032 38.1483 87.7579 0
M  V30 39 H  17.5589 39.2755 87.0141 0
M  V30 40 H  16.4843 38.9524 84.8417 0
M  V30 41 H  18.3173 37.9572 83.0875 0
M  V30 END ATOM
M  V30 BEGIN BOND
M  V30 1 1 1 2
M  V30 2 1 1 25
M  V30 3 1 1 26
M  V30 4 2 2 3
M  V30 5 1 2 7
M  V30 6 1 3 4
M  V30 7 2 4 5
M  V30 8 1 4 27
M  V30 9 1 5 6
M  V30 10 2 6 7
M  V30 11 1 6 8
M  V30 12 1 7 15
M  V30 13 1 8 9
M  V30 14 1 8 14
M  V30 15 1 9 10
M  V30 16 1 9 13
M  V30 17 1 9 28
M  V30 18 1 10 11
M  V30 19 1 10 29
M  V30 20 1 10 30
M  V30 21 1 11 12
M  V30 22 1 11 31
M  V30 23 1 11 32
M  V30 24 1 12 13
M  V30 25 1 12 33
M  V30 26 1 12 34
M  V30 27 1 13 35
M  V30 28 1 13 36
M  V30 29 2 14 15
M  V30 30 1 15 16
M  V30 31 2 16 17
M  V30 32 1 16 18
M  V30 33 1 17 21
M  V30 34 1 17 37
M  V30 35 2 18 19
M  V30 36 1 18 38
M  V30 37 1 19 20
M  V30 38 2 20 21
M  V30 39 1 20 22
M  V30 40 1 21 24
M  V30 41 1 22 23
M  V30 42 1 22 39
M  V30 43 2 23 24
M  V30 44 1 23 40
M  V30 45 1 24 41
M  V30 END BOND
M  V30 END CTAB
M  END
> <s_m_entry_id>
159

> <s_m_entry_name>
result.2754

> <s_m_Source_Path>
D:\OneDrive - zju.edu.cn\DOC\A-Finished\LCK_VS\Planet\LCK-8617

> <s_m_Source_File>
glide-dock_SP_top1262_2_pv.maegz

> <i_m_Source_File_Index>
159

> <PLANET_affinity>
7.326

> <i_lp_mmshare_version>
54117

> <i_f3d_flags>
0

> <s_epik_input>
W25IXTFbY0hdW2NIXWMoYzEyKVtjSF1jKFtjSF1uMiktYyhjKGMzNCljKFtOSDJdKW5bY0hdbjMpbm40W0NIXTVbQ0gyXVtDSDJdW0NIMl1bQ0gyXTU=

> <s_epik_cmdline>
J2VwaWtfcHl0aG9uJywgJy1waCcsICc3LjAnLCAnLXRuJywgJzgnLCAnLW1hJywgJzUwMCcsICctaW1hZScsICc8aW5maWxlLm1hZT4nLCAnLW9tYWUnLCAnPG91dGZpbGUubWFlPic=

> <r_epik_Ionization_Penalty>
  0.0026

> <r_epik_Ionization_Penalty_Charging>
  0.0000

> <r_epik_Ionization_Penalty_Neutral>
  0.0026

> <r_epik_State_Penalty>
  0.0000

> <r_epik_Charging_Adjusted_Penalty>
0

> <i_epik_Tot_Q>
0

> <i_epik_Tot_abs_Q>
0

> <s_lp_Force_Field>
S-OPLS

> <r_lp_Energy>
36.1572

> <b_lp_Chiralities_Consistent>
1

> <s_lp_Variant>
NC1=C2C(C3=CC4=C(N=C3)NC=C4)=NN(C2=NC=N1)C5CCCC5-1

> <s_i_glide_gridfile>
glide-grid_1

> <i_i_glide_lignum>
2200

> <i_i_glide_rotatable_bonds>
2

> <r_i_docking_score>
-8.77482427913802

> <r_i_glide_ligand_efficiency>
-0.365617678297418

> <r_i_glide_ligand_efficiency_sa>
-1.05462387772527

> <r_i_glide_ligand_efficiency_ln>
-2.10021810044684

> <r_i_glide_gscore>
-8.77482427913802

> <r_i_glide_lipo>
-2.39302518249282

> <r_i_glide_hbond>
-0.51905343894042

> <r_i_glide_metal>
0

> <r_i_glide_rewards>
-3.36451844341265

> <r_i_glide_evdw>
-39.6129112243652

> <r_i_glide_ecoul>
-5.59808540344238

> <r_i_glide_erotb>
0.365863851434588

> <r_i_glide_esite>
-0.0437326939920969

> <r_i_glide_emodel>
-68.027795865834

> <r_i_glide_energy>
-45.2109966278076

> <r_i_glide_einternal>
2.07296919822693

> <i_i_glide_confnum>
10

> <i_i_glide_posenum>
268

> <r_i_glide_eff_state_penalty>
0

> <r_lp_tautomer_probability>
1

> <s_m_subgroup_title>
glide-dock_SP_top1262_2_pv

> <s_m_subgroupid>
glide-dock_SP_top1262_2_pv

> <b_m_subgroup_collapsed>
0

$$$$
CN1C2=CC=C(N3C(NN=C3C4=CC(C(C)C)=C(O)C=C4O)=O)C=C2C=C1
                    3D
 Schrodinger Suite 2021-3.
  0  0  0     0  0            999 V3000
M  V30 BEGIN CTAB
M  V30 COUNTS 47 50 0 0 0
M  V30 BEGIN ATOM
M  V30 1 C  29.1915 39.8277 86.3055 0
M  V30 2 N  27.8728 39.3484 86.6918 0
M  V30 3 C  27.3043 39.5181 87.9338 0
M  V30 4 C  26.0579 38.9328 87.9610 0
M  V30 5 C  25.8383 38.3610 86.6680 0
M  V30 6 C  26.9929 38.6462 85.8811 0
M  V30 7 C  24.7845 37.6426 86.0912 0
M  V30 8 C  24.8541 37.2440 84.7513 0
M  V30 9 C  26.0075 37.5504 84.0076 0
M  V30 10 C  27.0958 38.2356 84.5481 0
M  V30 11 N  23.7522 36.5640 84.1507 0
M  V30 12 C  23.8802 35.5565 83.2434 0
M  V30 13 O  24.8830 35.0520 82.7327 0
M  V30 14 N  22.6166 35.1990 83.0401 0
M  V30 15 N  21.7272 35.9568 83.6443 0
M  V30 16 C  22.4045 36.7670 84.3290 0
M  V30 17 C  21.7460 37.8000 85.1798 0
M  V30 18 C  20.6546 37.3848 85.9604 0
M  V30 19 C  19.9257 38.2801 86.7535 0
M  V30 20 C  18.6992 37.7979 87.5485 0
M  V30 21 C  18.8098 36.3423 88.0451 0
M  V30 22 C  17.4017 38.0098 86.7474 0
M  V30 23 C  20.3098 39.6308 86.7661 0
M  V30 24 O  19.6505 40.5575 87.5276 0
M  V30 25 C  21.3823 40.0624 85.9922 0
M  V30 26 C  22.0930 39.1652 85.1979 0
M  V30 27 O  23.1096 39.6856 84.4434 0
M  V30 28 H  29.6638 40.3618 87.1326 0
M  V30 29 H  29.8177 38.9777 86.0301 0
M  V30 30 H  29.0980 40.4999 85.4496 0
M  V30 31 H  27.8493 40.0462 88.7029 0
M  V30 32 H  25.3903 38.9184 88.8118 0
M  V30 33 H  23.9065 37.4324 86.6805 0
M  V30 34 H  26.0706 37.2618 82.9679 0
M  V30 35 H  27.9651 38.4551 83.9467 0
M  V30 36 H  22.2864 34.4531 82.4343 0
M  V30 37 H  20.3511 36.3491 85.9343 0
M  V30 38 H  18.6323 38.4145 88.4429 0
M  V30 39 H  19.8008 36.1359 88.4443 0
M  V30 40 H  18.6333 35.6250 87.2455 0
M  V30 41 H  18.0864 36.1328 88.8316 0
M  V30 42 H  17.2879 39.0510 86.4437 0
M  V30 43 H  17.3835 37.4005 85.8445 0
M  V30 44 H  16.5197 37.7529 87.3378 0
M  V30 45 H  19.8156 41.4623 87.2439 0
M  V30 46 H  21.6645 41.1057 86.0049 0
M  V30 47 H  23.2324 40.6263 84.5810 0
M  V30 END ATOM
M  V30 BEGIN BOND
M  V30 1 1 1 2
M  V30 2 1 1 28
M  V30 3 1 1 29
M  V30 4 1 1 30
M  V30 5 1 2 3
M  V30 6 1 2 6
M  V30 7 2 3 4
M  V30 8 1 3 31
M  V30 9 1 4 5
M  V30 10 1 4 32
M  V30 11 2 5 6
M  V30 12 1 5 7
M  V30 13 1 6 10
M  V30 14 2 7 8
M  V30 15 1 7 33
M  V30 16 1 8 9
M  V30 17 1 8 11
M  V30 18 2 9 10
M  V30 19 1 9 34
M  V30 20 1 10 35
M  V30 21 1 11 12
M  V30 22 1 11 16
M  V30 23 2 12 13
M  V30 24 1 12 14
M  V30 25 1 14 15
M  V30 26 1 14 36
M  V30 27 2 15 16
M  V30 28 1 16 17
M  V30 29 2 17 18
M  V30 30 1 17 26
M  V30 31 1 18 19
M  V30 32 1 18 37
M  V30 33 1 19 20
M  V30 34 2 19 23
M  V30 35 1 20 21
M  V30 36 1 20 22
M  V30 37 1 20 38
M  V30 38 1 21 39
M  V30 39 1 21 40
M  V30 40 1 21 41
M  V30 41 1 22 42
M  V30 42 1 22 43
M  V30 43 1 22 44
M  V30 44 1 23 24
M  V30 45 1 23 25
M  V30 46 1 24 45
M  V30 47 2 25 26
M  V30 48 1 25 46
M  V30 49 1 26 27
M  V30 50 1 27 47
M  V30 END BOND
M  V30 END CTAB
M  END
> <s_m_entry_id>
163

> <s_m_entry_name>
result.6578

> <s_m_Source_Path>
D:\OneDrive - zju.edu.cn\DOC\A-Finished\LCK_VS\Planet\LCK-8617

> <s_m_Source_File>
glide-dock_SP_top1262_2_pv.maegz

> <i_m_Source_File_Index>
163

> <PLANET_affinity>
7.379

> <i_lp_mmshare_version>
54117

> <i_f3d_flags>
0

> <s_epik_input>
W2NIXTFbY0hdbihbQ0gzXSljKGMxMilbY0hdW2NIXWMoW2NIXTIpLW4zYyg9TylbbkhdbmMzLWM0W2NIXWMoW0NIXShbQ0gzXSlbQ0gzXSljKFtPSF0pW2NIXWM0W09IXQ==

> <s_epik_cmdline>
J2VwaWtfcHl0aG9uJywgJy1waCcsICc3LjAnLCAnLXRuJywgJzgnLCAnLW1hJywgJzUwMCcsICctaW1hZScsICc8aW5maWxlLm1hZT4nLCAnLW9tYWUnLCAnPG91dGZpbGUubWFlPic=

> <r_epik_Ionization_Penalty>
  0.0115

> <r_epik_Ionization_Penalty_Charging>
  0.0000

> <r_epik_Ionization_Penalty_Neutral>
  0.0115

> <r_epik_State_Penalty>
  0.0086

> <r_epik_Charging_Adjusted_Penalty>
0.00867109

> <i_epik_Tot_Q>
0

> <i_epik_Tot_abs_Q>
0

> <s_lp_Force_Field>
S-OPLS

> <r_lp_Energy>
43.6642

> <b_lp_Chiralities_Consistent>
1

> <s_lp_Variant>
CN1C2=CC=C(N3C(NN=C3C4=CC(C(C)C)=C(O)C=C4O)=O)C=C2C=C1-1

> <s_i_glide_gridfile>
glide-grid_1

> <i_i_glide_lignum>
2131

> <i_i_glide_rotatable_bonds>
5

> <r_i_docking_score>
-8.74915833534862

> <r_i_glide_ligand_efficiency>
-0.324042901309208

> <r_i_glide_ligand_efficiency_sa>
-0.972128702859632

> <r_i_glide_ligand_efficiency_ln>
-2.03665981932094

> <r_i_glide_gscore>
-8.75775833534862

> <r_i_glide_lipo>
-2.32948461692182

> <r_i_glide_hbond>
-0.559267798414867

> <r_i_glide_metal>
0

> <r_i_glide_rewards>
-2.84846130683351

> <r_i_glide_evdw>
-39.3746185302734

> <r_i_glide_ecoul>
-8.3633451461792

> <r_i_glide_erotb>
0.202688085262135

> <r_i_glide_esite>
0

> <r_i_glide_emodel>
-71.9514038529155

> <r_i_glide_energy>
-47.7379636764526

> <r_i_glide_einternal>
3.71529150009155

> <i_i_glide_confnum>
10

> <i_i_glide_posenum>
356

> <r_i_glide_eff_state_penalty>
0.0086

> <r_lp_tautomer_probability>
0.9999

> <s_m_subgroup_title>
glide-dock_SP_top1262_2_pv

> <s_m_subgroupid>
glide-dock_SP_top1262_2_pv

> <b_m_subgroup_collapsed>
0

$$$$
O=C(N1[C@H]2CN(C(C=C)=O)CCC2)N(C3=CC=C(OC4=CC=CC=C4)C=C3)C5=C1C=CN=C5N
                    3D
 Schrodinger Suite 2021-3.
  0  0  0     0  0            999 V3000
M  V30 BEGIN CTAB
M  V30 COUNTS 59 63 0 0 0
M  V30 BEGIN ATOM
M  V30 1 C  21.6826 41.5890 85.4747 0
M  V30 2 C  21.6289 41.0185 86.6933 0
M  V30 3 C  20.7647 39.9055 87.0193 0
M  V30 4 O  20.0833 39.9671 88.0432 0
M  V30 5 N  20.7390 38.8228 86.1865 0
M  V30 6 C  19.8885 37.6628 86.5105 0
M  V30 7 C  20.7521 36.6889 87.3469 0
M  V30 8 C  22.0834 36.3195 86.6541 0
M  V30 9 C  21.8667 38.4662 85.3047 0
M  V30 10 C  22.8316 37.5797 86.1309 0 CFG=2
M  V30 11 N  24.1081 37.3376 85.4406 0
M  V30 12 C  24.2848 36.5882 84.3022 0
M  V30 13 C  25.6031 36.6980 83.9486 0
M  V30 14 C  23.3992 35.8233 83.5441 0
M  V30 15 C  23.9284 35.1567 82.4440 0
M  V30 16 N  25.2470 35.1950 82.1155 0
M  V30 17 C  26.0817 35.9639 82.8552 0
M  V30 18 N  27.4084 35.9804 82.4435 0
M  V30 19 C  25.2806 37.9271 85.8105 0
M  V30 20 O  25.4811 38.6428 86.7947 0
M  V30 21 N  26.1643 37.6169 84.8198 0
M  V30 22 C  27.3438 38.3289 84.5467 0
M  V30 23 C  28.5787 37.7373 84.8080 0
M  V30 24 C  29.7563 38.4073 84.5011 0
M  V30 25 C  29.7024 39.6624 83.8925 0
M  V30 26 C  28.4680 40.2703 83.6577 0
M  V30 27 C  27.2853 39.6042 83.9749 0
M  V30 28 O  30.8462 40.3569 83.5746 0
M  V30 29 C  31.8126 39.8791 82.7069 0
M  V30 30 C  32.8554 40.7572 82.4066 0
M  V30 31 C  33.8689 40.3835 81.5282 0
M  V30 32 C  33.8446 39.1180 80.9482 0
M  V30 33 C  32.8166 38.2255 81.2412 0
M  V30 34 C  31.8024 38.6043 82.1164 0
M  V30 35 H  21.0785 41.2421 84.6474 0
M  V30 36 H  22.3372 42.4282 85.2884 0
M  V30 37 H  22.2310 41.3909 87.5087 0
M  V30 38 H  18.9424 37.9541 86.9711 0
M  V30 39 H  19.5959 37.2008 85.5669 0
M  V30 40 H  20.9616 37.1466 88.3146 0
M  V30 41 H  20.1812 35.7853 87.5647 0
M  V30 42 H  22.7091 35.7349 87.3243 0
M  V30 43 H  21.8443 35.6474 85.8328 0
M  V30 44 H  21.4703 37.9123 84.4526 0
M  V30 45 H  22.3472 39.3146 84.8226 0
M  V30 46 H  23.0882 38.1655 87.0165 0
M  V30 47 H  22.3462 35.7434 83.7597 0
M  V30 48 H  23.2870 34.5648 81.8090 0
M  V30 49 H  28.0608 36.5940 82.9078 0
M  V30 50 H  27.6299 35.5576 81.5433 0
M  V30 51 H  28.6301 36.7558 85.2434 0
M  V30 52 H  30.7104 37.9512 84.7222 0
M  V30 53 H  28.4325 41.2650 83.2402 0
M  V30 54 H  26.3330 40.0761 83.7794 0
M  V30 55 H  32.8681 41.7421 82.8520 0
M  V30 56 H  34.6672 41.0730 81.2971 0
M  V30 57 H  34.6265 38.8266 80.2624 0
M  V30 58 H  32.7986 37.2474 80.7819 0
M  V30 59 H  31.0090 37.8995 82.3068 0
M  V30 END ATOM
M  V30 BEGIN BOND
M  V30 1 2 1 2
M  V30 2 1 1 35
M  V30 3 1 1 36
M  V30 4 1 2 3
M  V30 5 1 2 37
M  V30 6 2 3 4
M  V30 7 1 3 5
M  V30 8 1 5 6
M  V30 9 1 5 9
M  V30 10 1 6 7
M  V30 11 1 6 38
M  V30 12 1 6 39
M  V30 13 1 7 8
M  V30 14 1 7 40
M  V30 15 1 7 41
M  V30 16 1 8 10
M  V30 17 1 8 42
M  V30 18 1 8 43
M  V30 19 1 9 10
M  V30 20 1 9 44
M  V30 21 1 9 45
M  V30 22 1 10 11
M  V30 23 1 10 46
M  V30 24 1 11 12
M  V30 25 1 11 19
M  V30 26 1 12 13
M  V30 27 2 12 14
M  V30 28 1 13 21
M  V30 29 2 13 17
M  V30 30 1 14 15
M  V30 31 1 14 47
M  V30 32 2 15 16
M  V30 33 1 15 48
M  V30 34 1 16 17
M  V30 35 1 17 18
M  V30 36 1 18 49
M  V30 37 1 18 50
M  V30 38 2 19 20
M  V30 39 1 19 21
M  V30 40 1 21 22
M  V30 41 2 22 23
M  V30 42 1 22 27
M  V30 43 1 23 24
M  V30 44 1 23 51
M  V30 45 2 24 25
M  V30 46 1 24 52
M  V30 47 1 25 26
M  V30 48 1 25 28
M  V30 49 2 26 27
M  V30 50 1 26 53
M  V30 51 1 27 54
M  V30 52 1 28 29
M  V30 53 2 29 30
M  V30 54 1 29 34
M  V30 55 1 30 31
M  V30 56 1 30 55
M  V30 57 2 31 32
M  V30 58 1 31 56
M  V30 59 1 32 33
M  V30 60 1 32 57
M  V30 61 2 33 34
M  V30 62 1 33 58
M  V30 63 1 34 59
M  V30 END BOND
M  V30 END CTAB
M  END
> <s_m_entry_id>
166

> <s_m_entry_name>
result.3705

> <s_m_Source_Path>
D:\OneDrive - zju.edu.cn\DOC\A-Finished\LCK_VS\Planet\LCK-8617

> <s_m_Source_File>
glide-dock_SP_top1262_2_pv.maegz

> <i_m_Source_File_Index>
166

> <PLANET_affinity>
7.252

> <i_lp_mmshare_version>
54117

> <i_f3d_flags>
0

> <s_epik_input>
W0NIMl09W0NIXUMoPU8pTjFbQ0gyXVtDSDJdW0NIMl1bQ0BIXShbQ0gyXTEpbjJjKD1PKW4oYyhjMjMpYyhbTkgyXSluW2NIXVtjSF0zKS1jNFtjSF1bY0hdYyhbY0hdW2NIXTQpT2M1W2NIXVtjSF1bY0hdW2NIXVtjSF01

> <s_epik_cmdline>
J2VwaWtfcHl0aG9uJywgJy1waCcsICc3LjAnLCAnLXRuJywgJzgnLCAnLW1hJywgJzUwMCcsICctaW1hZScsICc8aW5maWxlLm1hZT4nLCAnLW9tYWUnLCAnPG91dGZpbGUubWFlPic=

> <r_epik_Ionization_Penalty>
  0.0585

> <r_epik_Ionization_Penalty_Charging>
  0.0000

> <r_epik_Ionization_Penalty_Neutral>
  0.0585

> <r_epik_State_Penalty>
  0.0506

> <r_epik_Charging_Adjusted_Penalty>
0.0505682

> <i_epik_Tot_Q>
0

> <i_epik_Tot_abs_Q>
0

> <s_lp_Force_Field>
S-OPLS

> <r_lp_Energy>
53.6764

> <b_lp_Chiralities_Consistent>
1

> <s_lp_Variant>
O=C(N1[C@H]2CN(C(C=C)=O)CCC2)N(C3=CC=C(OC4=CC=CC=C4)C=C3)C5=C1C=CN=C5N-1

> <s_i_glide_gridfile>
glide-grid_1

> <i_i_glide_lignum>
2314

> <i_i_glide_rotatable_bonds>
6

> <r_i_docking_score>
-8.73181815127003

> <r_i_glide_ligand_efficiency>
-0.256818180919707

> <r_i_glide_ligand_efficiency_sa>
-0.831991208712131

> <r_i_glide_ligand_efficiency_ln>
-1.92910354881873

> <r_i_glide_gscore>
-8.78241815127003

> <r_i_glide_lipo>
-3.20778333075051

> <r_i_glide_hbond>
-0.747566183144261

> <r_i_glide_metal>
0

> <r_i_glide_rewards>
-1.97523697362724

> <r_i_glide_evdw>
-42.7783622741699

> <r_i_glide_ecoul>
-7.354651927948

> <r_i_glide_erotb>
0.406657095254779

> <r_i_glide_esite>
-0.016372856102095

> <r_i_glide_emodel>
-73.4663802545738

> <r_i_glide_energy>
-50.1330142021179

> <r_i_glide_einternal>
8.19006252288818

> <i_i_glide_confnum>
90

> <i_i_glide_posenum>
152

> <r_i_glide_eff_state_penalty>
0.0506

> <r_lp_tautomer_probability>
1

> <s_m_subgroup_title>
glide-dock_SP_top1262_2_pv

> <s_m_subgroupid>
glide-dock_SP_top1262_2_pv

> <b_m_subgroup_collapsed>
0

$$$$
ClC1=CC=C(O)C=C1C2=CC(C)=C(N=C(NC(C=C3)=CC=C3OCCN4CCCC4)N=N5)C5=C2.Cl
                    3D
 Schrodinger Suite 2021-3.
  0  0  0     0  0            999 V3000
M  V30 BEGIN CTAB
M  V30 COUNTS 61 65 0 0 0
M  V30 BEGIN ATOM
M  V30 1 Cl 21.1874 34.7567 87.7691 0
M  V30 2 C  20.1842 36.0713 87.2569 0
M  V30 3 C  18.9209 36.2167 87.8368 0
M  V30 4 C  18.0791 37.2555 87.4430 0
M  V30 5 C  18.4948 38.1373 86.4505 0
M  V30 6 O  17.6829 39.1569 86.0425 0
M  V30 7 C  19.7532 37.9992 85.8712 0
M  V30 8 C  20.6216 36.9829 86.2806 0
M  V30 9 C  21.9901 36.9263 85.7153 0
M  V30 10 C  23.0314 37.5753 86.3794 0
M  V30 11 C  24.3449 37.5252 85.9096 0
M  V30 12 C  25.4608 38.2416 86.6638 0
M  V30 13 C  22.2522 36.2225 84.5397 0
M  V30 14 C  23.5712 36.1346 84.0413 0
M  V30 15 C  24.6366 36.7863 84.7284 0
M  V30 16 N  23.8258 35.4243 82.9043 0
M  V30 17 N  25.0824 35.3380 82.4432 0
M  V30 18 C  26.0770 35.9690 83.1127 0
M  V30 19 N  25.9075 36.6921 84.2468 0
M  V30 20 N  27.3522 35.8040 82.5668 0
M  V30 21 C  28.6236 36.2863 82.9052 0
M  V30 22 C  28.8352 37.4532 83.6450 0
M  V30 23 C  30.1341 37.8764 83.9222 0
M  V30 24 C  31.2325 37.1394 83.4755 0
M  V30 25 C  31.0132 35.9681 82.7357 0
M  V30 26 C  29.7183 35.5571 82.4435 0
M  V30 27 O  32.4824 37.6538 83.7726 0
M  V30 28 C  33.6406 36.8189 83.7075 0
M  V30 29 C  33.8031 35.9759 84.9930 0
M  V30 30 N  34.2330 36.8657 86.1851 0 CHG=1
M  V30 31 C  34.5411 36.0830 87.4740 0
M  V30 32 C  34.5277 37.1483 88.5739 0
M  V30 33 C  33.7233 38.3321 88.0352 0
M  V30 34 C  33.2265 37.9341 86.6438 0
M  V30 35 H  18.5894 35.5179 88.5914 0
M  V30 36 H  17.1021 37.3604 87.8952 0
M  V30 37 H  17.0706 39.4880 86.7199 0
M  V30 38 H  20.0668 38.7095 85.1204 0
M  V30 39 H  22.8140 38.1210 87.2848 0
M  V30 40 H  25.0874 38.7653 87.5453 0
M  V30 41 H  26.2180 37.5276 86.9917 0
M  V30 42 H  25.9470 38.9741 86.0166 0
M  V30 43 H  21.4584 35.7242 84.0030 0
M  V30 44 H  27.3425 35.2562 81.7141 0
M  V30 45 H  28.0065 38.0518 83.9923 0
M  V30 46 H  30.2923 38.7852 84.4846 0
M  V30 47 H  31.8220 35.3679 82.3507 0
M  V30 48 H  29.5712 34.6608 81.8571 0
M  V30 49 H  34.5061 37.4741 83.5932 0
M  V30 50 H  33.6633 36.1958 82.8157 0
M  V30 51 H  34.6000 35.2382 84.8898 0
M  V30 52 H  32.8831 35.4620 85.2786 0
M  V30 53 H  35.4883 35.5569 87.3450 0
M  V30 54 H  33.7431 35.3445 87.5926 0
M  V30 55 H  35.5453 37.4503 88.8244 0
M  V30 56 H  34.0837 36.7570 89.4889 0
M  V30 57 H  32.8888 38.5778 88.6920 0
M  V30 58 H  34.3456 39.2276 87.9711 0
M  V30 59 H  32.2455 37.4549 86.6578 0
M  V30 60 H  33.2057 38.7463 85.9129 0
M  V30 61 H  35.0798 37.3385 85.8960 0
M  V30 END ATOM
M  V30 BEGIN BOND
M  V30 1 1 1 2
M  V30 2 2 2 3
M  V30 3 1 2 8
M  V30 4 1 3 4
M  V30 5 1 3 35
M  V30 6 2 4 5
M  V30 7 1 4 36
M  V30 8 1 5 6
M  V30 9 1 5 7
M  V30 10 1 6 37
M  V30 11 2 7 8
M  V30 12 1 7 38
M  V30 13 1 8 9
M  V30 14 2 9 10
M  V30 15 1 9 13
M  V30 16 1 10 11
M  V30 17 1 10 39
M  V30 18 1 11 12
M  V30 19 2 11 15
M  V30 20 1 12 40
M  V30 21 1 12 41
M  V30 22 1 12 42
M  V30 23 2 13 14
M  V30 24 1 13 43
M  V30 25 1 14 15
M  V30 26 1 14 16
M  V30 27 1 15 19
M  V30 28 2 16 17
M  V30 29 1 17 18
M  V30 30 2 18 19
M  V30 31 1 18 20
M  V30 32 1 20 21
M  V30 33 1 20 44
M  V30 34 2 21 22
M  V30 35 1 21 26
M  V30 36 1 22 23
M  V30 37 1 22 45
M  V30 38 2 23 24
M  V30 39 1 23 46
M  V30 40 1 24 25
M  V30 41 1 24 27
M  V30 42 2 25 26
M  V30 43 1 25 47
M  V30 44 1 26 48
M  V30 45 1 27 28
M  V30 46 1 28 29
M  V30 47 1 28 49
M  V30 48 1 28 50
M  V30 49 1 29 30
M  V30 50 1 29 51
M  V30 51 1 29 52
M  V30 52 1 30 31
M  V30 53 1 30 34
M  V30 54 1 30 61
M  V30 55 1 31 32
M  V30 56 1 31 53
M  V30 57 1 31 54
M  V30 58 1 32 33
M  V30 59 1 32 55
M  V30 60 1 32 56
M  V30 61 1 33 34
M  V30 62 1 33 57
M  V30 63 1 33 58
M  V30 64 1 34 59
M  V30 65 1 34 60
M  V30 END BOND
M  V30 END CTAB
M  END
> <s_m_entry_id>
167

> <s_m_entry_name>
result.474

> <s_m_Source_Path>
D:\OneDrive - zju.edu.cn\DOC\A-Finished\LCK_VS\Planet\LCK-8617

> <s_m_Source_File>
glide-dock_SP_top1262_2_pv.maegz

> <i_m_Source_File_Index>
167

> <PLANET_affinity>
8.4

> <i_lp_mmshare_version>
54117

> <i_f3d_flags>
0

> <s_epik_input>
Q2xjMVtjSF1bY0hdYyhbT0hdKVtjSF1jMS1jKFtjSF0yKVtjSF1jKFtDSDNdKWMoYzIzKW5jKG5uMylbTkhdYzRbY0hdW2NIXWMoW2NIXVtjSF00KU9bQ0gyXVtDSDJdTjVbQ0gyXVtDSDJdW0NIMl1bQ0gyXTU=

> <s_epik_cmdline>
J2VwaWtfcHl0aG9uJywgJy1waCcsICc3LjAnLCAnLXRuJywgJzgnLCAnLW1hJywgJzUwMCcsICctaW1hZScsICc8aW5maWxlLm1hZT4nLCAnLW9tYWUnLCAnPG91dGZpbGUubWFlPic=

> <r_epik_Ionization_Penalty>
  0.0125

> <r_epik_Ionization_Penalty_Charging>
  0.0083

> <r_epik_Ionization_Penalty_Neutral>
  0.0042

> <r_epik_State_Penalty>
  0.0062

> <r_epik_Charging_Adjusted_Penalty>
0.0145267

> <i_epik_Tot_Q>
1

> <i_epik_Tot_abs_Q>
1

> <s_lp_Force_Field>
S-OPLS

> <r_lp_Energy>
60.7853

> <b_lp_Chiralities_Consistent>
1

> <s_lp_Variant>
ClC1=CC=C(O)C=C1C2=CC(C)=C(N=C(NC(C=C3)=CC=C3OCCN4CCCC4)N=N5)C5=C2.Cl-1

> <s_i_glide_gridfile>
glide-grid_1

> <i_i_glide_lignum>
880

> <i_i_glide_rotatable_bonds>
8

> <r_i_docking_score>
-8.73144316426122

> <r_i_glide_ligand_efficiency>
-0.256807151890036

> <r_i_glide_ligand_efficiency_sa>
-0.831955478937494

> <r_i_glide_ligand_efficiency_ln>
-1.92902070367045

> <r_i_glide_gscore>
-8.73764316426122

> <r_i_glide_lipo>
-3.7401853913579

> <r_i_glide_hbond>
-0.454892986374792

> <r_i_glide_metal>
0

> <r_i_glide_rewards>
-0.851412840319141

> <r_i_glide_evdw>
-50.0488586425781

> <r_i_glide_ecoul>
-11.3180503845215

> <r_i_glide_erotb>
0.534146554243209

> <r_i_glide_esite>
-0.0251480106454634

> <r_i_glide_emodel>
-96.2477061650563

> <r_i_glide_energy>
-61.3669090270996

> <r_i_glide_einternal>
10.2853078842163

> <i_i_glide_confnum>
70

> <i_i_glide_posenum>
213

> <r_i_glide_eff_state_penalty>
0.0062

> <r_lp_tautomer_probability>
1

> <s_m_subgroup_title>
glide-dock_SP_top1262_2_pv

> <s_m_subgroupid>
glide-dock_SP_top1262_2_pv

> <b_m_subgroup_collapsed>
0

$$$$
O[C@H]1CC[C@H](NC2=NC=C3N=C(NC4=C(F)C=C(F)C=C4F)N([C@@H]5COCC5)C3=N2)CC1
                    3D
 Schrodinger Suite 2021-3.
  0  0  0     0  0            999 V3000
M  V30 BEGIN CTAB
M  V30 COUNTS 55 59 0 0 0
M  V30 BEGIN ATOM
M  V30 1 O  32.9188 37.8834 83.6869 0
M  V30 2 C  31.6423 37.6467 83.1392 0 CFG=1
M  V30 3 C  31.5085 36.1717 82.7150 0
M  V30 4 C  30.1040 35.8497 82.1747 0
M  V30 5 C  28.9804 36.2450 83.1560 0 CFG=1
M  V30 6 C  29.1202 37.7183 83.6313 0
M  V30 7 C  30.5388 38.0574 84.1316 0
M  V30 8 N  27.7057 35.9722 82.4677 0
M  V30 9 C  26.4312 36.0810 83.0514 0
M  V30 10 N  25.4749 35.2956 82.4807 0
M  V30 11 C  24.2101 35.3703 82.9792 0
M  V30 12 N  26.2376 36.9472 84.0830 0
M  V30 13 C  24.9810 37.0076 84.5318 0
M  V30 14 C  23.9095 36.2422 84.0350 0
M  V30 15 N  24.4365 37.8213 85.5123 0
M  V30 16 C  25.1907 38.8657 86.2557 0 CFG=2
M  V30 17 C  26.5285 38.3574 86.8354 0
M  V30 18 O  26.6008 38.8224 88.1804 0
M  V30 19 C  25.7011 39.9086 88.3399 0
M  V30 20 C  24.5246 39.4823 87.4782 0
M  V30 21 C  23.0744 37.5091 85.5098 0
M  V30 22 N  22.7453 36.5434 84.6783 0
M  V30 23 N  22.1767 38.1789 86.3067 0
M  V30 24 C  20.8271 37.8575 86.5339 0
M  V30 25 C  19.8189 38.7438 86.1247 0
M  V30 26 F  20.1191 39.8642 85.4255 0
M  V30 27 C  18.4893 38.4905 86.4593 0
M  V30 28 C  18.1544 37.3685 87.2096 0
M  V30 29 F  16.8694 37.1564 87.5610 0
M  V30 30 C  19.1463 36.4662 87.5932 0
M  V30 31 C  20.4776 36.7027 87.2494 0
M  V30 32 F  21.4228 35.8151 87.6390 0
M  V30 33 H  32.8971 38.7147 84.1694 0
M  V30 34 H  31.5794 38.2648 82.2416 0
M  V30 35 H  32.2542 35.9348 81.9545 0
M  V30 36 H  31.7301 35.5237 83.5647 0
M  V30 37 H  29.9686 36.3580 81.2188 0
M  V30 38 H  30.0468 34.7804 81.9540 0
M  V30 39 H  29.0485 35.6084 84.0401 0
M  V30 40 H  28.4558 37.9167 84.4649 0
M  V30 41 H  28.8268 38.4064 82.8442 0
M  V30 42 H  30.6009 39.1244 84.3423 0
M  V30 43 H  30.7074 37.5537 85.0870 0
M  V30 44 H  27.7412 35.2221 81.7909 0
M  V30 45 H  23.4516 34.7573 82.5185 0
M  V30 46 H  25.4091 39.6310 85.5064 0
M  V30 47 H  26.6107 37.2716 86.8306 0
M  V30 48 H  27.3657 38.7659 86.2690 0
M  V30 49 H  26.1703 40.8410 88.0142 0
M  V30 50 H  25.4369 40.0435 89.3893 0
M  V30 51 H  23.8651 40.3169 87.2369 0
M  V30 52 H  23.9694 38.7345 88.0431 0
M  V30 53 H  22.4831 39.0051 86.7995 0
M  V30 54 H  17.7095 39.1766 86.1609 0
M  V30 55 H  18.8816 35.5866 88.1612 0
M  V30 END ATOM
M  V30 BEGIN BOND
M  V30 1 1 1 2
M  V30 2 1 1 33
M  V30 3 1 2 3
M  V30 4 1 2 7
M  V30 5 1 2 34
M  V30 6 1 3 4
M  V30 7 1 3 35
M  V30 8 1 3 36
M  V30 9 1 4 5
M  V30 10 1 4 37
M  V30 11 1 4 38
M  V30 12 1 5 6
M  V30 13 1 5 8
M  V30 14 1 5 39
M  V30 15 1 6 7
M  V30 16 1 6 40
M  V30 17 1 6 41
M  V30 18 1 7 42
M  V30 19 1 7 43
M  V30 20 1 8 9
M  V30 21 1 8 44
M  V30 22 2 9 10
M  V30 23 1 9 12
M  V30 24 1 10 11
M  V30 25 2 11 14
M  V30 26 1 11 45
M  V30 27 2 12 13
M  V30 28 1 13 14
M  V30 29 1 13 15
M  V30 30 1 14 22
M  V30 31 1 15 16
M  V30 32 1 15 21
M  V30 33 1 16 17
M  V30 34 1 16 20
M  V30 35 1 16 46
M  V30 36 1 17 18
M  V30 37 1 17 47
M  V30 38 1 17 48
M  V30 39 1 18 19
M  V30 40 1 19 20
M  V30 41 1 19 49
M  V30 42 1 19 50
M  V30 43 1 20 51
M  V30 44 1 20 52
M  V30 45 2 21 22
M  V30 46 1 21 23
M  V30 47 1 23 24
M  V30 48 1 23 53
M  V30 49 2 24 25
M  V30 50 1 24 31
M  V30 51 1 25 26
M  V30 52 1 25 27
M  V30 53 2 27 28
M  V30 54 1 27 54
M  V30 55 1 28 29
M  V30 56 1 28 30
M  V30 57 2 30 31
M  V30 58 1 30 55
M  V30 59 1 31 32
M  V30 END BOND
M  V30 END CTAB
M  END
> <s_m_entry_id>
169

> <s_m_entry_name>
result.2164

> <s_m_Source_Path>
D:\OneDrive - zju.edu.cn\DOC\A-Finished\LCK_VS\Planet\LCK-8617

> <s_m_Source_File>
glide-dock_SP_top1262_2_pv.maegz

> <i_m_Source_File_Index>
169

> <PLANET_affinity>
8.839

> <i_lp_mmshare_version>
54117

> <i_f3d_flags>
0

> <s_epik_input>
W09IXVtDQEhdMVtDSDJdW0NIMl1bQ0BASF0oW0NIMl1bQ0gyXTEpW05IXWMobjIpbltjSF1jKGMyMyluYyhuM1tDQEBIXTRbQ0gyXU9bQ0gyXVtDSDJdNClbTkhdYzVjKEYpW2NIXWMoRilbY0hdYzVG

> <s_epik_cmdline>
J2VwaWtfcHl0aG9uJywgJy1waCcsICc3LjAnLCAnLXRuJywgJzgnLCAnLW1hJywgJzUwMCcsICctaW1hZScsICc8aW5maWxlLm1hZT4nLCAnLW9tYWUnLCAnPG91dGZpbGUubWFlPic=

> <r_epik_Ionization_Penalty>
  0.0058

> <r_epik_Ionization_Penalty_Charging>
  0.0000

> <r_epik_Ionization_Penalty_Neutral>
  0.0058

> <r_epik_State_Penalty>
  0.0041

> <r_epik_Charging_Adjusted_Penalty>
0.00411414

> <i_epik_Tot_Q>
0

> <i_epik_Tot_abs_Q>
0

> <s_lp_Force_Field>
S-OPLS

> <r_lp_Energy>
28.557

> <b_lp_Chiralities_Consistent>
1

> <s_lp_Variant>
O[C@H]1CC[C@H](NC2=NC=C3N=C(NC4=C(F)C=C(F)C=C4F)N([C@@H]5COCC5)C3=N2)CC1-1

> <s_i_glide_gridfile>
glide-grid_1

> <i_i_glide_lignum>
580

> <i_i_glide_rotatable_bonds>
6

> <r_i_docking_score>
-8.72181833818651

> <r_i_glide_ligand_efficiency>
-0.272556823068328

> <r_i_glide_ligand_efficiency_sa>
-0.8653139743199

> <r_i_glide_ligand_efficiency_ln>
-1.95305287370856

> <r_i_glide_gscore>
-8.7259183381865

> <r_i_glide_lipo>
-2.77948335176744

> <r_i_glide_hbond>
-0.435908723501291

> <r_i_glide_metal>
0

> <r_i_glide_rewards>
-2.85045637702123

> <r_i_glide_evdw>
-49.2019538879395

> <r_i_glide_ecoul>
-3.40047597885132

> <r_i_glide_erotb>
0.348656664534218

> <r_i_glide_esite>
-0.038557459206092

> <r_i_glide_emodel>
-75.2211097649889

> <r_i_glide_energy>
-52.6024298667908

> <r_i_glide_einternal>
8.69362640380859

> <i_i_glide_confnum>
21

> <i_i_glide_posenum>
256

> <r_i_glide_eff_state_penalty>
0.0041

> <s_m_subgroup_title>
glide-dock_SP_top1262_2_pv

> <s_m_subgroupid>
glide-dock_SP_top1262_2_pv

> <b_m_subgroup_collapsed>
0

$$$$
NC1=C2C(N(C3CCOCC3)N=C2COC4=CC=CC(Cl)=C4)=NC=N1
                    3D
 Schrodinger Suite 2021-3.
  0  0  0     0  0            999 V3000
M  V30 BEGIN CTAB
M  V30 COUNTS 43 46 0 0 0
M  V30 BEGIN ATOM
M  V30 1 N  22.7466 35.1567 83.2437 0
M  V30 2 C  24.0492 35.6205 83.3443 0
M  V30 3 N  24.9266 35.2262 82.3965 0
M  V30 4 C  26.1652 35.7745 82.4441 0
M  V30 5 N  26.6399 36.6784 83.3400 0
M  V30 6 C  25.7496 37.0166 84.2829 0
M  V30 7 C  24.4322 36.5034 84.3674 0
M  V30 8 N  25.8747 37.9130 85.3409 0
M  V30 9 C  26.9893 38.7862 85.7782 0
M  V30 10 C  28.2836 38.7145 84.9397 0
M  V30 11 C  28.1759 39.5455 83.6429 0
M  V30 12 O  27.7671 40.8797 83.9363 0
M  V30 13 C  26.5050 40.9893 84.5954 0
M  V30 14 C  26.5691 40.2646 85.9527 0
M  V30 15 N  24.7419 37.9114 86.0857 0
M  V30 16 C  23.8778 37.0842 85.5468 0
M  V30 17 C  22.5330 36.8251 86.1955 0
M  V30 18 O  21.4962 37.2628 85.3240 0
M  V30 19 C  20.2157 37.3844 85.8246 0
M  V30 20 C  19.7903 36.8630 87.0589 0
M  V30 21 C  18.4776 37.0524 87.4939 0
M  V30 22 C  17.5783 37.7620 86.7001 0
M  V30 23 C  17.9892 38.2738 85.4693 0
M  V30 24 Cl 16.8834 39.1564 84.4865 0
M  V30 25 C  19.2980 38.0757 85.0333 0
M  V30 26 H  22.0807 35.4490 83.9415 0
M  V30 27 H  22.4915 34.4893 82.5219 0
M  V30 28 H  26.8442 35.4851 81.6563 0
M  V30 29 H  27.2255 38.3837 86.7661 0
M  V30 30 H  29.1094 39.0902 85.5464 0
M  V30 31 H  28.5857 37.6834 84.7560 0
M  V30 32 H  29.1461 39.5839 83.1478 0
M  V30 33 H  27.4824 39.1043 82.9283 0
M  V30 34 H  26.2771 42.0460 84.7405 0
M  V30 35 H  25.7092 40.5772 83.9757 0
M  V30 36 H  25.6310 40.3525 86.5017 0
M  V30 37 H  27.2786 40.7594 86.6169 0
M  V30 38 H  22.4694 37.3330 87.1601 0
M  V30 39 H  22.4241 35.7560 86.3744 0
M  V30 40 H  20.4644 36.3026 87.6907 0
M  V30 41 H  18.1551 36.6505 88.4433 0
M  V30 42 H  16.5657 37.9222 87.0408 0
M  V30 43 H  19.6142 38.4766 84.0819 0
M  V30 END ATOM
M  V30 BEGIN BOND
M  V30 1 1 1 2
M  V30 2 1 1 26
M  V30 3 1 1 27
M  V30 4 2 2 3
M  V30 5 1 2 7
M  V30 6 1 3 4
M  V30 7 2 4 5
M  V30 8 1 4 28
M  V30 9 1 5 6
M  V30 10 2 6 7
M  V30 11 1 6 8
M  V30 12 1 7 16
M  V30 13 1 8 9
M  V30 14 1 8 15
M  V30 15 1 9 10
M  V30 16 1 9 14
M  V30 17 1 9 29
M  V30 18 1 10 11
M  V30 19 1 10 30
M  V30 20 1 10 31
M  V30 21 1 11 12
M  V30 22 1 11 32
M  V30 23 1 11 33
M  V30 24 1 12 13
M  V30 25 1 13 14
M  V30 26 1 13 34
M  V30 27 1 13 35
M  V30 28 1 14 36
M  V30 29 1 14 37
M  V30 30 2 15 16
M  V30 31 1 16 17
M  V30 32 1 17 18
M  V30 33 1 17 38
M  V30 34 1 17 39
M  V30 35 1 18 19
M  V30 36 2 19 20
M  V30 37 1 19 25
M  V30 38 1 20 21
M  V30 39 1 20 40
M  V30 40 2 21 22
M  V30 41 1 21 41
M  V30 42 1 22 23
M  V30 43 1 22 42
M  V30 44 1 23 24
M  V30 45 2 23 25
M  V30 46 1 25 43
M  V30 END BOND
M  V30 END CTAB
M  END
> <s_m_entry_id>
173

> <s_m_entry_name>
result.1184

> <s_m_Source_Path>
D:\OneDrive - zju.edu.cn\DOC\A-Finished\LCK_VS\Planet\LCK-8617

> <s_m_Source_File>
glide-dock_SP_top1262_2_pv.maegz

> <i_m_Source_File_Index>
173

> <PLANET_affinity>
7.313

> <i_lp_mmshare_version>
54117

> <i_f3d_flags>
0

> <s_epik_input>
Q2xjKFtjSF0xKVtjSF1bY0hdW2NIXWMxT1tDSDJdYyhjKGMyMyljKFtOSDJdKW5bY0hdbjIpbm4zW0NIXTRbQ0gyXVtDSDJdT1tDSDJdW0NIMl00

> <s_epik_cmdline>
J2VwaWtfcHl0aG9uJywgJy1waCcsICc3LjAnLCAnLXRuJywgJzgnLCAnLW1hJywgJzUwMCcsICctaW1hZScsICc8aW5maWxlLm1hZT4nLCAnLW9tYWUnLCAnPG91dGZpbGUubWFlPic=

> <r_epik_Ionization_Penalty>
  0.0010

> <r_epik_Ionization_Penalty_Charging>
  0.0000

> <r_epik_Ionization_Penalty_Neutral>
  0.0010

> <r_epik_State_Penalty>
  0.0006

> <r_epik_Charging_Adjusted_Penalty>
0.000618329

> <i_epik_Tot_Q>
0

> <i_epik_Tot_abs_Q>
0

> <s_lp_Force_Field>
S-OPLS

> <r_lp_Energy>
13.4501

> <b_lp_Chiralities_Consistent>
1

> <s_lp_Variant>
NC1=C2C(N(C3CCOCC3)N=C2COC4=CC=CC(Cl)=C4)=NC=N1-1

> <s_i_glide_gridfile>
glide-grid_1

> <i_i_glide_lignum>
2232

> <i_i_glide_rotatable_bonds>
4

> <r_i_docking_score>
-8.70730722363032

> <r_i_glide_ligand_efficiency>
-0.348292288945213

> <r_i_glide_ligand_efficiency_sa>
-1.01841282986585

> <r_i_glide_ligand_efficiency_ln>
-2.06389274894156

> <r_i_glide_gscore>
-8.70790722363032

> <r_i_glide_lipo>
-2.7697369498506

> <r_i_glide_hbond>
-0.577437395174004

> <r_i_glide_metal>
0

> <r_i_glide_rewards>
-2.80034137646891

> <r_i_glide_evdw>
-40.7884674072266

> <r_i_glide_ecoul>
-6.23739814758301

> <r_i_glide_erotb>
0.414641590361961

> <r_i_glide_esite>
0

> <r_i_glide_emodel>
-67.3925607812084

> <r_i_glide_energy>
-47.0258655548096

> <r_i_glide_einternal>
7.77771520614624

> <i_i_glide_confnum>
347

> <i_i_glide_posenum>
143

> <r_i_glide_eff_state_penalty>
0.0006

> <r_lp_tautomer_probability>
1

> <s_m_subgroup_title>
glide-dock_SP_top1262_2_pv

> <s_m_subgroupid>
glide-dock_SP_top1262_2_pv

> <b_m_subgroup_collapsed>
0

$$$$
[H]Cl.O=C(C1CCC1)NCCCNC2=NC(NC3=CC4=C(CN(C)CC4)C=C3)=NC=C2C5CC5.[H]Cl
                    3D
 Schrodinger Suite 2021-3.
  0  0  0     0  0            999 V3000
M  V30 BEGIN CTAB
M  V30 COUNTS 67 71 0 0 0
M  V30 BEGIN ATOM
M  V30 1 C  24.0147 41.2077 92.1477 0
M  V30 2 C  24.6549 40.8043 93.4893 0
M  V30 3 C  25.9741 40.5746 92.7277 0
M  V30 4 C  25.4318 41.5774 91.6810 0
M  V30 5 C  25.6851 41.2495 90.1943 0
M  V30 6 O  25.5284 42.1356 89.3565 0
M  V30 7 N  26.0860 40.0098 89.8676 0
M  V30 8 C  26.4772 39.5656 88.5316 0
M  V30 9 C  25.2991 39.0278 87.7061 0
M  V30 10 C  25.7404 38.2811 86.4392 0
M  V30 11 N  24.6430 37.5724 85.7876 0
M  V30 12 C  24.8247 36.7847 84.6402 0
M  V30 13 N  26.0835 36.7034 84.1294 0
M  V30 14 C  26.2720 35.9548 83.0180 0
M  V30 15 N  25.3005 35.2519 82.3939 0
M  V30 16 C  24.0507 35.3353 82.9103 0
M  V30 17 C  23.7435 36.0980 84.0435 0
M  V30 18 C  22.2843 36.1092 84.5205 0
M  V30 19 C  21.8738 36.0458 85.9743 0
M  V30 20 C  21.5888 37.2926 85.1536 0
M  V30 21 N  27.5447 35.8549 82.4440 0
M  V30 22 C  28.8230 36.2615 82.8612 0
M  V30 23 C  29.9254 35.5584 82.3774 0
M  V30 24 C  29.0410 37.3031 83.7672 0
M  V30 25 C  30.3264 37.5771 84.2257 0
M  V30 26 C  31.4278 36.8319 83.7933 0
M  V30 27 C  31.2253 35.8212 82.8277 0
M  V30 28 C  32.8085 37.1011 84.3964 0
M  V30 29 N  33.6642 35.8171 84.3036 0 CHG=1 CFG=2
M  V30 30 C  35.0576 36.0298 84.9309 0
M  V30 31 C  33.7812 35.3960 82.8262 0
M  V30 32 C  32.3868 34.9589 82.3334 0
M  V30 33 H  23.5652 40.3578 91.6295 0
M  V30 34 H  23.2988 42.0310 92.1841 0
M  V30 35 H  24.2229 39.9245 93.9681 0
M  V30 36 H  24.7044 41.6176 94.2161 0
M  V30 37 H  26.8822 40.8866 93.2429 0
M  V30 38 H  26.0785 39.5370 92.4080 0
M  V30 39 H  25.6936 42.6146 91.9045 0
M  V30 40 H  26.1532 39.3266 90.6060 0
M  V30 41 H  27.0137 40.3398 87.9781 0
M  V30 42 H  27.2125 38.7698 88.6639 0
M  V30 43 H  24.7122 38.3567 88.3276 0
M  V30 44 H  24.6299 39.8483 87.4387 0
M  V30 45 H  26.2271 38.9645 85.7407 0
M  V30 46 H  26.5158 37.5552 86.6919 0
M  V30 47 H  23.7077 37.6734 86.1529 0
M  V30 48 H  23.2883 34.7632 82.3969 0
M  V30 49 H  21.6351 35.5494 83.8464 0
M  V30 50 H  21.0480 35.3880 86.2499 0
M  V30 51 H  22.6455 36.0605 86.7429 0
M  V30 52 H  22.1455 38.2135 85.3293 0
M  V30 53 H  20.5602 37.5026 84.8584 0
M  V30 54 H  27.5370 35.3761 81.5477 0
M  V30 55 H  29.7721 34.7576 81.6659 0
M  V30 56 H  28.2248 37.8997 84.1414 0
M  V30 57 H  30.4619 38.3666 84.9519 0
M  V30 58 H  33.3347 37.9001 83.8721 0
M  V30 59 H  32.7563 37.3505 85.4579 0
M  V30 60 H  35.5736 36.8169 84.3797 0
M  V30 61 H  34.9060 36.3025 85.9761 0
M  V30 62 H  35.5904 35.0785 84.8685 0
M  V30 63 H  34.1616 36.2548 82.2686 0
M  V30 64 H  34.5104 34.5859 82.7551 0
M  V30 65 H  32.2055 33.9502 82.6941 0
M  V30 66 H  32.3799 34.8899 81.2448 0
M  V30 67 H  33.1950 35.0738 84.8061 0
M  V30 END ATOM
M  V30 BEGIN BOND
M  V30 1 1 1 2
M  V30 2 1 1 4
M  V30 3 1 1 33
M  V30 4 1 1 34
M  V30 5 1 2 3
M  V30 6 1 2 35
M  V30 7 1 2 36
M  V30 8 1 3 4
M  V30 9 1 3 37
M  V30 10 1 3 38
M  V30 11 1 4 5
M  V30 12 1 4 39
M  V30 13 2 5 6
M  V30 14 1 5 7
M  V30 15 1 7 8
M  V30 16 1 7 40
M  V30 17 1 8 9
M  V30 18 1 8 41
M  V30 19 1 8 42
M  V30 20 1 9 10
M  V30 21 1 9 43
M  V30 22 1 9 44
M  V30 23 1 10 11
M  V30 24 1 10 45
M  V30 25 1 10 46
M  V30 26 1 11 12
M  V30 27 1 11 47
M  V30 28 2 12 13
M  V30 29 1 12 17
M  V30 30 1 13 14
M  V30 31 2 14 15
M  V30 32 1 14 21
M  V30 33 1 15 16
M  V30 34 2 16 17
M  V30 35 1 16 48
M  V30 36 1 17 18
M  V30 37 1 18 19
M  V30 38 1 18 20
M  V30 39 1 18 49
M  V30 40 1 19 20
M  V30 41 1 19 50
M  V30 42 1 19 51
M  V30 43 1 20 52
M  V30 44 1 20 53
M  V30 45 1 21 22
M  V30 46 1 21 54
M  V30 47 2 22 23
M  V30 48 1 22 24
M  V30 49 1 23 27
M  V30 50 1 23 55
M  V30 51 2 24 25
M  V30 52 1 24 56
M  V30 53 1 25 26
M  V30 54 1 25 57
M  V30 55 2 26 27
M  V30 56 1 26 28
M  V30 57 1 27 32
M  V30 58 1 28 29
M  V30 59 1 28 58
M  V30 60 1 28 59
M  V30 61 1 29 30
M  V30 62 1 29 31
M  V30 63 1 29 67
M  V30 64 1 30 60
M  V30 65 1 30 61
M  V30 66 1 30 62
M  V30 67 1 31 32
M  V30 68 1 31 63
M  V30 69 1 31 64
M  V30 70 1 32 65
M  V30 71 1 32 66
M  V30 END BOND
M  V30 END CTAB
M  END
> <s_m_entry_id>
176

> <s_m_entry_name>
result.4193

> <s_m_Source_Path>
D:\OneDrive - zju.edu.cn\DOC\A-Finished\LCK_VS\Planet\LCK-8617

> <s_m_Source_File>
glide-dock_SP_top1262_2_pv.maegz

> <i_m_Source_File_Index>
176

> <PLANET_affinity>
8.276

> <i_lp_mmshare_version>
54117

> <i_f3d_flags>
0

> <s_epik_input>
W0NIMl0xW0NIMl1bQ0gyXVtDSF0xQyg9TylbTkhdW0NIMl1bQ0gyXVtDSDJdW05IXWMybmMobltjSF1jMltDSF0zW0NIMl1bQ0gyXTMpW05IXWMoW2NIXVtjSF00KVtjSF1jKGM0NSlbQ0gyXVtDSDJdTihbQ0gyXTUpW0NIM10=

> <s_epik_cmdline>
J2VwaWtfcHl0aG9uJywgJy1waCcsICc3LjAnLCAnLXRuJywgJzgnLCAnLW1hJywgJzUwMCcsICctaW1hZScsICc8aW5maWxlLm1hZT4nLCAnLW9tYWUnLCAnPG91dGZpbGUubWFlPic=

> <r_epik_Ionization_Penalty>
  0.1807

> <r_epik_Ionization_Penalty_Charging>
  0.0137

> <r_epik_Ionization_Penalty_Neutral>
  0.1670

> <r_epik_State_Penalty>
  0.0778

> <r_epik_Charging_Adjusted_Penalty>
0.0914811

> <i_epik_Tot_Q>
1

> <i_epik_Tot_abs_Q>
1

> <s_lp_Force_Field>
S-OPLS

> <r_lp_Energy>
56.743

> <b_lp_Chiralities_Consistent>
1

> <s_lp_Variant>
[H]Cl.O=C(C1CCC1)NCCCNC2=NC(NC3=CC4=C(CN(C)CC4)C=C3)=NC=C2C5CC5.[H]Cl-1

> <s_i_glide_gridfile>
glide-grid_1

> <i_i_glide_lignum>
992

> <i_i_glide_rotatable_bonds>
10

> <r_i_docking_score>
-8.68066442863985

> <r_i_glide_ligand_efficiency>
-0.271270763394995

> <r_i_glide_ligand_efficiency_sa>
-0.861230989367932

> <r_i_glide_ligand_efficiency_ln>
-1.94383739154786

> <r_i_glide_gscore>
-8.75846442863985

> <r_i_glide_lipo>
-3.37887929281269

> <r_i_glide_hbond>
-0.591781827348593

> <r_i_glide_metal>
0

> <r_i_glide_rewards>
-2.09741131511614

> <r_i_glide_evdw>
-41.6912498474121

> <r_i_glide_ecoul>
-8.13172149658203

> <r_i_glide_erotb>
0.66161495401511

> <r_i_glide_esite>
-0.0476862305196362

> <r_i_glide_emodel>
-75.9325467307515

> <r_i_glide_energy>
-49.8229713439941

> <r_i_glide_einternal>
11.8889598846436

> <i_i_glide_confnum>
7

> <i_i_glide_posenum>
183

> <r_i_glide_eff_state_penalty>
0.0778

> <r_lp_tautomer_probability>
1

> <s_m_subgroup_title>
glide-dock_SP_top1262_2_pv

> <s_m_subgroupid>
glide-dock_SP_top1262_2_pv

> <b_m_subgroup_collapsed>
0

$$$$
N=S(CC1=CC(NC2=NC(C3=CC=C(F)C=C3OC)=NC=N2)=CC=C1)(C)=O
                    3D
 Schrodinger Suite 2021-3.
  0  0  0     0  0            999 V3000
M  V30 BEGIN CTAB
M  V30 COUNTS 45 47 0 0 0
M  V30 BEGIN ATOM
M  V30 1 N  30.0871 41.8774 85.2432 0
M  V30 2 S  29.9797 40.7557 84.2171 0 CFG=1
M  V30 3 O  29.0335 40.7564 83.0974 0
M  V30 4 C  31.7462 40.6198 83.5846 0
M  V30 5 C  29.7162 39.2341 85.2928 0
M  V30 6 C  29.6331 37.9782 84.4449 0
M  V30 7 C  28.3900 37.4929 84.0268 0
M  V30 8 C  28.3111 36.3554 83.2156 0
M  V30 9 C  29.4911 35.7342 82.7961 0
M  V30 10 C  30.7311 36.2143 83.2090 0
M  V30 11 C  30.8018 37.3289 84.0418 0
M  V30 12 N  27.1046 35.7888 82.7812 0
M  V30 13 C  25.7740 35.8816 83.1982 0
M  V30 14 N  25.4246 36.6345 84.2763 0
M  V30 15 C  24.0908 36.6464 84.5701 0
M  V30 16 N  23.1452 35.9663 83.8703 0
M  V30 17 C  23.6166 35.2404 82.8360 0
M  V30 18 N  24.9102 35.1609 82.4446 0
M  V30 19 C  23.6128 37.5476 85.6705 0
M  V30 20 C  24.3092 38.7417 85.9265 0
M  V30 21 C  23.8780 39.6389 86.8994 0
M  V30 22 C  22.7378 39.3603 87.6406 0
M  V30 23 F  22.3078 40.2287 88.5843 0
M  V30 24 C  22.0403 38.1789 87.4208 0
M  V30 25 C  22.4655 37.2565 86.4489 0
M  V30 26 O  21.8072 36.0566 86.2352 0
M  V30 27 C  20.6375 35.7359 86.9768 0
M  V30 28 H  30.4854 42.7058 84.8037 0
M  V30 29 H  32.4070 40.4166 84.4265 0
M  V30 30 H  32.0312 41.5564 83.1102 0
M  V30 31 H  31.7957 39.8093 82.8585 0
M  V30 32 H  30.5357 39.1868 86.0107 0
M  V30 33 H  28.7961 39.3971 85.8530 0
M  V30 34 H  27.4987 38.0170 84.3294 0
M  V30 35 H  29.4546 34.8634 82.1567 0
M  V30 36 H  31.6359 35.7180 82.8895 0
M  V30 37 H  31.7671 37.6980 84.3569 0
M  V30 38 H  27.2033 35.2158 81.9542 0
M  V30 39 H  22.8806 34.7567 82.2168 0
M  V30 40 H  25.1885 38.9952 85.3514 0
M  V30 41 H  24.4201 40.5560 87.0714 0
M  V30 42 H  21.1677 37.9941 88.0243 0
M  V30 43 H  20.2748 34.7557 86.6744 0
M  V30 44 H  20.8431 35.6867 88.0423 0
M  V30 45 H  19.8396 36.4590 86.7964 0
M  V30 END ATOM
M  V30 BEGIN BOND
M  V30 1 2 1 2
M  V30 2 1 1 28
M  V30 3 2 2 3
M  V30 4 1 2 4
M  V30 5 1 2 5
M  V30 6 1 4 29
M  V30 7 1 4 30
M  V30 8 1 4 31
M  V30 9 1 5 6
M  V30 10 1 5 32
M  V30 11 1 5 33
M  V30 12 2 6 7
M  V30 13 1 6 11
M  V30 14 1 7 8
M  V30 15 1 7 34
M  V30 16 2 8 9
M  V30 17 1 8 12
M  V30 18 1 9 10
M  V30 19 1 9 35
M  V30 20 2 10 11
M  V30 21 1 10 36
M  V30 22 1 11 37
M  V30 23 1 12 13
M  V30 24 1 12 38
M  V30 25 2 13 14
M  V30 26 1 13 18
M  V30 27 1 14 15
M  V30 28 2 15 16
M  V30 29 1 15 19
M  V30 30 1 16 17
M  V30 31 2 17 18
M  V30 32 1 17 39
M  V30 33 2 19 20
M  V30 34 1 19 25
M  V30 35 1 20 21
M  V30 36 1 20 40
M  V30 37 2 21 22
M  V30 38 1 21 41
M  V30 39 1 22 23
M  V30 40 1 22 24
M  V30 41 2 24 25
M  V30 42 1 24 42
M  V30 43 1 25 26
M  V30 44 1 26 27
M  V30 45 1 27 43
M  V30 46 1 27 44
M  V30 47 1 27 45
M  V30 END BOND
M  V30 END CTAB
M  END
> <s_m_entry_id>
177

> <s_m_entry_name>
result.7642

> <s_m_Source_Path>
D:\OneDrive - zju.edu.cn\DOC\A-Finished\LCK_VS\Planet\LCK-8617

> <s_m_Source_File>
glide-dock_SP_top1262_2_pv.maegz

> <i_m_Source_File_Index>
177

> <PLANET_affinity>
7.04

> <i_lp_mmshare_version>
54117

> <i_f3d_flags>
0

> <s_epik_input>
W05IXT1bU0BAXSg9TykoW0NIM10pW0NIMl1jMVtjSF1jKFtjSF1bY0hdW2NIXTEpW05IXWMybmMobltjSF1uMiktYzNbY0hdW2NIXWMoRilbY0hdYzNPW0NIM10=

> <s_epik_cmdline>
J2VwaWtfcHl0aG9uJywgJy1waCcsICc3LjAnLCAnLXRuJywgJzgnLCAnLW1hJywgJzUwMCcsICctaW1hZScsICc8aW5maWxlLm1hZT4nLCAnLW9tYWUnLCAnPG91dGZpbGUubWFlPic=

> <r_epik_Ionization_Penalty>
  0.0000

> <r_epik_Ionization_Penalty_Charging>
  0.0000

> <r_epik_Ionization_Penalty_Neutral>
  0.0000

> <r_epik_State_Penalty>
  0.0000

> <r_epik_Charging_Adjusted_Penalty>
0

> <i_epik_Tot_Q>
0

> <i_epik_Tot_abs_Q>
0

> <s_lp_Force_Field>
S-OPLS

> <r_lp_Energy>
27.3254

> <b_lp_Chiralities_Consistent>
1

> <s_lp_Variant>
N=S(CC1=CC(NC2=NC(C3=CC=C(F)C=C3OC)=NC=N2)=CC=C1)(C)=O-1

> <s_i_glide_gridfile>
glide-grid_1

> <i_i_glide_lignum>
2642

> <i_i_glide_rotatable_bonds>
6

> <r_i_docking_score>
-8.68001962151417

> <r_i_glide_ligand_efficiency>
-0.321482208204228

> <r_i_glide_ligand_efficiency_sa>
-0.964446623553132

> <r_i_glide_ligand_efficiency_ln>
-2.02056546658106

> <r_i_glide_gscore>
-8.68001962151417

> <r_i_glide_lipo>
-1.90041561424413

> <r_i_glide_hbond>
-0.830919027843293

> <r_i_glide_metal>
0

> <r_i_glide_rewards>
-2.74651532717869

> <r_i_glide_evdw>
-38.6075401306152

> <r_i_glide_ecoul>
-11.1428155899048

> <r_i_glide_erotb>
0.45407140611866

> <r_i_glide_esite>
-0.0544417133502295

> <r_i_glide_emodel>
-74.5852561499887

> <r_i_glide_energy>
-49.75035572052

> <r_i_glide_einternal>
2.48506045341492

> <i_i_glide_confnum>
151

> <i_i_glide_posenum>
300

> <r_i_glide_eff_state_penalty>
0

> <r_lp_tautomer_probability>
1

> <s_m_subgroup_title>
glide-dock_SP_top1262_2_pv

> <s_m_subgroupid>
glide-dock_SP_top1262_2_pv

> <b_m_subgroup_collapsed>
0

$$$$
N=[S@](CC1=CC(NC2=NC(C3=CC=C(F)C=C3OC)=NC=N2)=CC=C1)(C)=O
                    3D
 Schrodinger Suite 2021-3.
  0  0  0     0  0            999 V3000
M  V30 BEGIN CTAB
M  V30 COUNTS 45 47 0 0 0
M  V30 BEGIN ATOM
M  V30 1 N  30.0871 41.8774 85.2432 0
M  V30 2 S  29.9797 40.7557 84.2171 0 CFG=1
M  V30 3 O  29.0335 40.7564 83.0974 0
M  V30 4 C  31.7462 40.6198 83.5846 0
M  V30 5 C  29.7162 39.2341 85.2928 0
M  V30 6 C  29.6331 37.9782 84.4449 0
M  V30 7 C  28.3900 37.4929 84.0268 0
M  V30 8 C  28.3111 36.3554 83.2156 0
M  V30 9 C  29.4911 35.7342 82.7961 0
M  V30 10 C  30.7311 36.2143 83.2090 0
M  V30 11 C  30.8018 37.3289 84.0418 0
M  V30 12 N  27.1046 35.7888 82.7812 0
M  V30 13 C  25.7740 35.8816 83.1982 0
M  V30 14 N  25.4246 36.6345 84.2763 0
M  V30 15 C  24.0908 36.6464 84.5701 0
M  V30 16 N  23.1452 35.9663 83.8703 0
M  V30 17 C  23.6166 35.2404 82.8360 0
M  V30 18 N  24.9102 35.1609 82.4446 0
M  V30 19 C  23.6128 37.5476 85.6705 0
M  V30 20 C  24.3092 38.7417 85.9265 0
M  V30 21 C  23.8780 39.6389 86.8994 0
M  V30 22 C  22.7378 39.3603 87.6406 0
M  V30 23 F  22.3078 40.2287 88.5843 0
M  V30 24 C  22.0403 38.1789 87.4208 0
M  V30 25 C  22.4655 37.2565 86.4489 0
M  V30 26 O  21.8072 36.0566 86.2352 0
M  V30 27 C  20.6375 35.7359 86.9768 0
M  V30 28 H  30.4854 42.7058 84.8037 0
M  V30 29 H  32.4070 40.4166 84.4265 0
M  V30 30 H  32.0312 41.5564 83.1102 0
M  V30 31 H  31.7957 39.8093 82.8585 0
M  V30 32 H  30.5357 39.1868 86.0107 0
M  V30 33 H  28.7961 39.3971 85.8530 0
M  V30 34 H  27.4987 38.0170 84.3294 0
M  V30 35 H  29.4546 34.8634 82.1567 0
M  V30 36 H  31.6359 35.7180 82.8895 0
M  V30 37 H  31.7671 37.6980 84.3569 0
M  V30 38 H  27.2033 35.2158 81.9542 0
M  V30 39 H  22.8806 34.7567 82.2168 0
M  V30 40 H  25.1885 38.9952 85.3514 0
M  V30 41 H  24.4201 40.5560 87.0714 0
M  V30 42 H  21.1677 37.9941 88.0243 0
M  V30 43 H  20.2748 34.7557 86.6744 0
M  V30 44 H  20.8431 35.6867 88.0423 0
M  V30 45 H  19.8396 36.4590 86.7964 0
M  V30 END ATOM
M  V30 BEGIN BOND
M  V30 1 2 1 2
M  V30 2 1 1 28
M  V30 3 2 2 3
M  V30 4 1 2 4
M  V30 5 1 2 5
M  V30 6 1 4 29
M  V30 7 1 4 30
M  V30 8 1 4 31
M  V30 9 1 5 6
M  V30 10 1 5 32
M  V30 11 1 5 33
M  V30 12 2 6 7
M  V30 13 1 6 11
M  V30 14 1 7 8
M  V30 15 1 7 34
M  V30 16 2 8 9
M  V30 17 1 8 12
M  V30 18 1 9 10
M  V30 19 1 9 35
M  V30 20 2 10 11
M  V30 21 1 10 36
M  V30 22 1 11 37
M  V30 23 1 12 13
M  V30 24 1 12 38
M  V30 25 2 13 14
M  V30 26 1 13 18
M  V30 27 1 14 15
M  V30 28 2 15 16
M  V30 29 1 15 19
M  V30 30 1 16 17
M  V30 31 2 17 18
M  V30 32 1 17 39
M  V30 33 2 19 20
M  V30 34 1 19 25
M  V30 35 1 20 21
M  V30 36 1 20 40
M  V30 37 2 21 22
M  V30 38 1 21 41
M  V30 39 1 22 23
M  V30 40 1 22 24
M  V30 41 2 24 25
M  V30 42 1 24 42
M  V30 43 1 25 26
M  V30 44 1 26 27
M  V30 45 1 27 43
M  V30 46 1 27 44
M  V30 47 1 27 45
M  V30 END BOND
M  V30 END CTAB
M  END
> <s_m_entry_id>
178

> <s_m_entry_name>
result.8556

> <s_m_Source_Path>
D:\OneDrive - zju.edu.cn\DOC\A-Finished\LCK_VS\Planet\LCK-8617

> <s_m_Source_File>
glide-dock_SP_top1262_2_pv.maegz

> <i_m_Source_File_Index>
178

> <PLANET_affinity>
7.04

> <i_lp_mmshare_version>
54117

> <i_f3d_flags>
0

> <s_epik_input>
W05IXT1bU0BAXSg9TykoW0NIM10pW0NIMl1jMVtjSF1jKFtjSF1bY0hdW2NIXTEpW05IXWMybmMobltjSF1uMiktYzNbY0hdW2NIXWMoRilbY0hdYzNPW0NIM10=

> <s_epik_cmdline>
J2VwaWtfcHl0aG9uJywgJy1waCcsICc3LjAnLCAnLXRuJywgJzgnLCAnLW1hJywgJzUwMCcsICctaW1hZScsICc8aW5maWxlLm1hZT4nLCAnLW9tYWUnLCAnPG91dGZpbGUubWFlPic=

> <r_epik_Ionization_Penalty>
  0.0000

> <r_epik_Ionization_Penalty_Charging>
  0.0000

> <r_epik_Ionization_Penalty_Neutral>
  0.0000

> <r_epik_State_Penalty>
  0.0000

> <r_epik_Charging_Adjusted_Penalty>
0

> <i_epik_Tot_Q>
0

> <i_epik_Tot_abs_Q>
0

> <s_lp_Force_Field>
S-OPLS

> <r_lp_Energy>
27.3254

> <b_lp_Chiralities_Consistent>
1

> <s_lp_Variant>
N=[S@](CC1=CC(NC2=NC(C3=CC=C(F)C=C3OC)=NC=N2)=CC=C1)(C)=O-1

> <s_i_glide_gridfile>
glide-grid_1

> <i_i_glide_lignum>
2643

> <i_i_glide_rotatable_bonds>
6

> <r_i_docking_score>
-8.68001962151417

> <r_i_glide_ligand_efficiency>
-0.321482208204228

> <r_i_glide_ligand_efficiency_sa>
-0.964446623553132

> <r_i_glide_ligand_efficiency_ln>
-2.02056546658106

> <r_i_glide_gscore>
-8.68001962151417

> <r_i_glide_lipo>
-1.90041561424413

> <r_i_glide_hbond>
-0.830919027843293

> <r_i_glide_metal>
0

> <r_i_glide_rewards>
-2.74651532717869

> <r_i_glide_evdw>
-38.6075401306152

> <r_i_glide_ecoul>
-11.1428155899048

> <r_i_glide_erotb>
0.45407140611866

> <r_i_glide_esite>
-0.0544417133502295

> <r_i_glide_emodel>
-74.5852561499887

> <r_i_glide_energy>
-49.75035572052

> <r_i_glide_einternal>
2.48506045341492

> <i_i_glide_confnum>
151

> <i_i_glide_posenum>
300

> <r_i_glide_eff_state_penalty>
0

> <r_lp_tautomer_probability>
1

> <s_m_subgroup_title>
glide-dock_SP_top1262_2_pv

> <s_m_subgroupid>
glide-dock_SP_top1262_2_pv

> <b_m_subgroup_collapsed>
0

$$$$
N=[S@@](CC1=CC(NC2=NC(C3=CC=C(F)C=C3OC)=NC=N2)=CC=C1)(C)=O
                    3D
 Schrodinger Suite 2021-3.
  0  0  0     0  0            999 V3000
M  V30 BEGIN CTAB
M  V30 COUNTS 45 47 0 0 0
M  V30 BEGIN ATOM
M  V30 1 N  30.0871 41.8774 85.2432 0
M  V30 2 S  29.9797 40.7557 84.2171 0 CFG=1
M  V30 3 O  29.0335 40.7564 83.0974 0
M  V30 4 C  31.7462 40.6198 83.5846 0
M  V30 5 C  29.7162 39.2341 85.2928 0
M  V30 6 C  29.6331 37.9782 84.4449 0
M  V30 7 C  28.3900 37.4929 84.0268 0
M  V30 8 C  28.3111 36.3554 83.2156 0
M  V30 9 C  29.4911 35.7342 82.7961 0
M  V30 10 C  30.7311 36.2143 83.2090 0
M  V30 11 C  30.8018 37.3289 84.0418 0
M  V30 12 N  27.1046 35.7888 82.7812 0
M  V30 13 C  25.7740 35.8816 83.1982 0
M  V30 14 N  25.4246 36.6345 84.2763 0
M  V30 15 C  24.0908 36.6464 84.5701 0
M  V30 16 N  23.1452 35.9663 83.8703 0
M  V30 17 C  23.6166 35.2404 82.8360 0
M  V30 18 N  24.9102 35.1609 82.4446 0
M  V30 19 C  23.6128 37.5476 85.6705 0
M  V30 20 C  24.3092 38.7417 85.9265 0
M  V30 21 C  23.8780 39.6389 86.8994 0
M  V30 22 C  22.7378 39.3603 87.6406 0
M  V30 23 F  22.3078 40.2287 88.5843 0
M  V30 24 C  22.0403 38.1789 87.4208 0
M  V30 25 C  22.4655 37.2565 86.4489 0
M  V30 26 O  21.8072 36.0566 86.2352 0
M  V30 27 C  20.6375 35.7359 86.9768 0
M  V30 28 H  30.4854 42.7058 84.8037 0
M  V30 29 H  32.4070 40.4166 84.4265 0
M  V30 30 H  32.0312 41.5564 83.1102 0
M  V30 31 H  31.7957 39.8093 82.8585 0
M  V30 32 H  30.5357 39.1868 86.0107 0
M  V30 33 H  28.7961 39.3971 85.8530 0
M  V30 34 H  27.4987 38.0170 84.3294 0
M  V30 35 H  29.4546 34.8634 82.1567 0
M  V30 36 H  31.6359 35.7180 82.8895 0
M  V30 37 H  31.7671 37.6980 84.3569 0
M  V30 38 H  27.2033 35.2158 81.9542 0
M  V30 39 H  22.8806 34.7567 82.2168 0
M  V30 40 H  25.1885 38.9952 85.3514 0
M  V30 41 H  24.4201 40.5560 87.0714 0
M  V30 42 H  21.1677 37.9941 88.0243 0
M  V30 43 H  20.2748 34.7557 86.6744 0
M  V30 44 H  20.8431 35.6867 88.0423 0
M  V30 45 H  19.8396 36.4590 86.7964 0
M  V30 END ATOM
M  V30 BEGIN BOND
M  V30 1 2 1 2
M  V30 2 1 1 28
M  V30 3 2 2 3
M  V30 4 1 2 4
M  V30 5 1 2 5
M  V30 6 1 4 29
M  V30 7 1 4 30
M  V30 8 1 4 31
M  V30 9 1 5 6
M  V30 10 1 5 32
M  V30 11 1 5 33
M  V30 12 2 6 7
M  V30 13 1 6 11
M  V30 14 1 7 8
M  V30 15 1 7 34
M  V30 16 2 8 9
M  V30 17 1 8 12
M  V30 18 1 9 10
M  V30 19 1 9 35
M  V30 20 2 10 11
M  V30 21 1 10 36
M  V30 22 1 11 37
M  V30 23 1 12 13
M  V30 24 1 12 38
M  V30 25 2 13 14
M  V30 26 1 13 18
M  V30 27 1 14 15
M  V30 28 2 15 16
M  V30 29 1 15 19
M  V30 30 1 16 17
M  V30 31 2 17 18
M  V30 32 1 17 39
M  V30 33 2 19 20
M  V30 34 1 19 25
M  V30 35 1 20 21
M  V30 36 1 20 40
M  V30 37 2 21 22
M  V30 38 1 21 41
M  V30 39 1 22 23
M  V30 40 1 22 24
M  V30 41 2 24 25
M  V30 42 1 24 42
M  V30 43 1 25 26
M  V30 44 1 26 27
M  V30 45 1 27 43
M  V30 46 1 27 44
M  V30 47 1 27 45
M  V30 END BOND
M  V30 END CTAB
M  END
> <s_m_entry_id>
179

> <s_m_entry_name>
result.8559

> <s_m_Source_Path>
D:\OneDrive - zju.edu.cn\DOC\A-Finished\LCK_VS\Planet\LCK-8617

> <s_m_Source_File>
glide-dock_SP_top1262_2_pv.maegz

> <i_m_Source_File_Index>
179

> <PLANET_affinity>
7.04

> <i_lp_mmshare_version>
54117

> <i_f3d_flags>
0

> <s_epik_input>
W05IXT1bU0BAXSg9TykoW0NIM10pW0NIMl1jMVtjSF1jKFtjSF1bY0hdW2NIXTEpW05IXWMybmMobltjSF1uMiktYzNbY0hdW2NIXWMoRilbY0hdYzNPW0NIM10=

> <s_epik_cmdline>
J2VwaWtfcHl0aG9uJywgJy1waCcsICc3LjAnLCAnLXRuJywgJzgnLCAnLW1hJywgJzUwMCcsICctaW1hZScsICc8aW5maWxlLm1hZT4nLCAnLW9tYWUnLCAnPG91dGZpbGUubWFlPic=

> <r_epik_Ionization_Penalty>
  0.0000

> <r_epik_Ionization_Penalty_Charging>
  0.0000

> <r_epik_Ionization_Penalty_Neutral>
  0.0000

> <r_epik_State_Penalty>
  0.0000

> <r_epik_Charging_Adjusted_Penalty>
0

> <i_epik_Tot_Q>
0

> <i_epik_Tot_abs_Q>
0

> <s_lp_Force_Field>
S-OPLS

> <r_lp_Energy>
27.3254

> <b_lp_Chiralities_Consistent>
1

> <s_lp_Variant>
N=[S@@](CC1=CC(NC2=NC(C3=CC=C(F)C=C3OC)=NC=N2)=CC=C1)(C)=O-1

> <s_i_glide_gridfile>
glide-grid_1

> <i_i_glide_lignum>
2644

> <i_i_glide_rotatable_bonds>
6

> <r_i_docking_score>
-8.68001962151417

> <r_i_glide_ligand_efficiency>
-0.321482208204228

> <r_i_glide_ligand_efficiency_sa>
-0.964446623553132

> <r_i_glide_ligand_efficiency_ln>
-2.02056546658106

> <r_i_glide_gscore>
-8.68001962151417

> <r_i_glide_lipo>
-1.90041561424413

> <r_i_glide_hbond>
-0.830919027843293

> <r_i_glide_metal>
0

> <r_i_glide_rewards>
-2.74651532717869

> <r_i_glide_evdw>
-38.6075401306152

> <r_i_glide_ecoul>
-11.1428155899048

> <r_i_glide_erotb>
0.45407140611866

> <r_i_glide_esite>
-0.0544417133502295

> <r_i_glide_emodel>
-74.5852561499887

> <r_i_glide_energy>
-49.75035572052

> <r_i_glide_einternal>
2.48506045341492

> <i_i_glide_confnum>
151

> <i_i_glide_posenum>
300

> <r_i_glide_eff_state_penalty>
0

> <r_lp_tautomer_probability>
1

> <s_m_subgroup_title>
glide-dock_SP_top1262_2_pv

> <s_m_subgroupid>
glide-dock_SP_top1262_2_pv

> <b_m_subgroup_collapsed>
0

$$$$
O=C(O[C@H]1[C@@H](C(C=C2O)=CC3=C([C@@H]4[C@H](O)CC5=C(O)C=C(O)C=C5O4)C=C(O)C(...
                    3D
 Schrodinger Suite 2021-3.
  0  0  0     0  0            999 V3000
M  V30 BEGIN CTAB
M  V30 COUNTS 81 87 0 0 0
M  V30 BEGIN ATOM
M  V30 1 O  20.5508 40.2553 85.5145 0
M  V30 2 C  21.4139 39.1992 85.3497 0
M  V30 3 C  22.6838 39.2516 85.9324 0
M  V30 4 C  21.0366 38.0782 84.5984 0
M  V30 5 O  19.7956 38.0013 84.0080 0
M  V30 6 C  21.9459 37.0279 84.4284 0
M  V30 7 O  21.6296 35.9534 83.6447 0
M  V30 8 C  23.2011 37.0768 85.0237 0
M  V30 9 C  23.5907 38.1883 85.7797 0
M  V30 10 C  24.9640 38.2107 86.3692 0
M  V30 11 O  25.6835 37.2123 86.4436 0
M  V30 12 O  25.3594 39.4610 86.6824 0
M  V30 13 C  26.6967 39.8189 87.0555 0 CFG=2
M  V30 14 C  26.5895 40.9809 88.0660 0
M  V30 15 C  26.0486 42.2329 87.3649 0
M  V30 16 C  26.2431 42.3754 85.9702 0
M  V30 17 C  25.3302 43.2370 88.0287 0
M  V30 18 O  25.0957 43.1571 89.3756 0
M  V30 19 C  24.8273 44.3366 87.3375 0
M  V30 20 C  25.0005 44.4354 85.9571 0
M  V30 21 C  25.7114 43.4594 85.2737 0
M  V30 22 O  24.4483 45.4762 85.2715 0
M  V30 23 C  27.5351 40.3507 85.8504 0 CFG=2
M  V30 24 O  26.8869 41.4447 85.1788 0
M  V30 25 C  27.8973 39.2845 84.8127 0
M  V30 26 C  29.1527 38.7867 84.8424 0
M  V30 27 C  26.8687 38.9160 83.8623 0
M  V30 28 C  26.7594 37.7369 83.2422 0
M  V30 29 O  25.6836 37.5557 82.4360 0
M  V30 30 C  27.6635 36.5974 83.2445 0
M  V30 31 O  27.1302 35.3609 83.1707 0 CHG=1
M  V30 32 C  29.1700 36.7776 83.2397 0
M  V30 33 C  29.8498 37.8125 83.9520 0
M  V30 34 C  29.9068 35.8902 82.4154 0
M  V30 35 O  29.3201 34.9096 81.6437 0
M  V30 36 C  31.3011 35.9838 82.3747 0
M  V30 37 O  32.0796 35.1129 81.6436 0
M  V30 38 C  31.9501 36.9978 83.0512 0
M  V30 39 C  31.2564 37.9596 83.7889 0
M  V30 40 C  32.0799 39.1428 84.3910 0 CFG=2
M  V30 41 C  31.8458 40.5562 83.7663 0 CFG=2
M  V30 42 O  30.5697 41.1566 83.9009 0
M  V30 43 C  32.2840 40.5419 82.2986 0
M  V30 44 O  33.5077 38.9212 84.3958 0
M  V30 45 C  34.2144 39.2021 83.2297 0
M  V30 46 C  33.7029 40.0001 82.1860 0
M  V30 47 C  35.5074 38.6827 83.1696 0
M  V30 48 C  36.3109 38.9507 82.0643 0
M  V30 49 O  37.5781 38.4383 81.9909 0
M  V30 50 C  35.8223 39.7378 81.0254 0
M  V30 51 C  34.5291 40.2511 81.0817 0
M  V30 52 O  34.0733 40.9858 80.0205 0
M  V30 53 H  20.9057 40.9924 86.0158 0
M  V30 54 H  22.9590 40.1252 86.5060 0
M  V30 55 H  19.7048 37.1862 83.5060 0
M  V30 56 H  22.3128 35.2752 83.6071 0
M  V30 57 H  23.8841 36.2542 84.8642 0
M  V30 58 H  27.1850 38.9659 87.5376 0
M  V30 59 H  25.9592 40.6874 88.9074 0
M  V30 60 H  27.5767 41.2027 88.4780 0
M  V30 61 H  25.5445 42.4172 89.7797 0
M  V30 62 H  24.2773 45.1030 87.8624 0
M  V30 63 H  25.8342 43.5343 84.1993 0
M  V30 64 H  24.3125 45.2579 84.3461 0
M  V30 65 H  28.4519 40.7858 86.2589 0
M  V30 66 H  29.7630 39.1574 85.6546 0
M  V30 67 H  26.0851 39.6398 83.6771 0
M  V30 68 H  25.6954 36.6688 82.0632 0
M  V30 69 H  27.7899 34.6618 83.0979 0
M  V30 70 H  28.6371 35.1762 81.0053 0
M  V30 71 H  31.6129 34.7580 80.8724 0
M  V30 72 H  33.0234 37.0269 82.9526 0
M  V30 73 H  31.8407 39.1751 85.4517 0
M  V30 74 H  32.4909 41.2564 84.3009 0
M  V30 75 H  30.6691 42.0958 83.6444 0
M  V30 76 H  31.6065 39.9250 81.7075 0
M  V30 77 H  32.2268 41.5475 81.8877 0
M  V30 78 H  35.8735 38.0736 83.9823 0
M  V30 79 H  37.8085 37.9059 82.7539 0
M  V30 80 H  36.4387 39.9337 80.1603 0
M  V30 81 H  33.1269 41.1577 80.0694 0
M  V30 END ATOM
M  V30 BEGIN BOND
M  V30 1 1 1 2
M  V30 2 1 1 53
M  V30 3 2 2 3
M  V30 4 1 2 4
M  V30 5 1 3 9
M  V30 6 1 3 54
M  V30 7 1 4 5
M  V30 8 2 4 6
M  V30 9 1 5 55
M  V30 10 1 6 7
M  V30 11 1 6 8
M  V30 12 1 7 56
M  V30 13 2 8 9
M  V30 14 1 8 57
M  V30 15 1 9 10
M  V30 16 2 10 11
M  V30 17 1 10 12
M  V30 18 1 12 13
M  V30 19 1 13 14
M  V30 20 1 13 23
M  V30 21 1 13 58
M  V30 22 1 14 15
M  V30 23 1 14 59
M  V30 24 1 14 60
M  V30 25 2 15 16
M  V30 26 1 15 17
M  V30 27 1 16 24
M  V30 28 1 16 21
M  V30 29 1 17 18
M  V30 30 2 17 19
M  V30 31 1 18 61
M  V30 32 1 19 20
M  V30 33 1 19 62
M  V30 34 2 20 21
M  V30 35 1 20 22
M  V30 36 1 21 63
M  V30 37 1 22 64
M  V30 38 1 23 24
M  V30 39 1 23 25
M  V30 40 1 23 65
M  V30 41 2 25 26
M  V30 42 1 25 27
M  V30 43 1 26 33
M  V30 44 1 26 66
M  V30 45 2 27 28
M  V30 46 1 27 67
M  V30 47 1 28 29
M  V30 48 1 28 30
M  V30 49 1 29 68
M  V30 50 2 30 31
M  V30 51 1 30 32
M  V30 52 1 31 69
M  V30 53 2 32 33
M  V30 54 1 32 34
M  V30 55 1 33 39
M  V30 56 1 34 35
M  V30 57 2 34 36
M  V30 58 1 35 70
M  V30 59 1 36 37
M  V30 60 1 36 38
M  V30 61 1 37 71
M  V30 62 2 38 39
M  V30 63 1 38 72
M  V30 64 1 39 40
M  V30 65 1 40 41
M  V30 66 1 40 44
M  V30 67 1 40 73
M  V30 68 1 41 42
M  V30 69 1 41 43
M  V30 70 1 41 74
M  V30 71 1 42 75
M  V30 72 1 43 46
M  V30 73 1 43 76
M  V30 74 1 43 77
M  V30 75 1 44 45
M  V30 76 2 45 46
M  V30 77 1 45 47
M  V30 78 1 46 51
M  V30 79 2 47 48
M  V30 80 1 47 78
M  V30 81 1 48 49
M  V30 82 1 48 50
M  V30 83 1 49 79
M  V30 84 2 50 51
M  V30 85 1 50 80
M  V30 86 1 51 52
M  V30 87 1 52 81
M  V30 END BOND
M  V30 END CTAB
M  END
> <s_m_entry_id>
182

> <s_m_entry_name>
result.6046

> <s_m_Source_Path>
D:\OneDrive - zju.edu.cn\DOC\A-Finished\LCK_VS\Planet\LCK-8617

> <s_m_Source_File>
glide-dock_SP_top1262_2_pv.maegz

> <i_m_Source_File_Index>
182

> <PLANET_affinity>
8.641

> <i_lp_mmshare_version>
54117

> <i_f3d_flags>
0

> <s_epik_input>
W09IXWMxYyhbT0hdKVtjSF1jKFtjSF1jMVtPSF0pQyg9TylPW0NASF0oW0NIMl0yKVtDQEhdKE9jKGMyMylbY0hdYyhbT0hdKVtjSF1jM1tPSF0pYyhbY0hdYyhbT0hdKWM0PVtPSCtdKVtjSF1jKGM0NSljKFtjSF1jKFtPSF0pYzVbT0hdKVtDQEBIXShPNilbQ0BIXShbT0hdKVtDSDJdYyhjNjcpYyhbT0hdKVtjSF1jKFtjSF03KVtPSF0=

> <s_epik_cmdline>
J2VwaWtfcHl0aG9uJywgJy1waCcsICc3LjAnLCAnLXRuJywgJzgnLCAnLW1hJywgJzUwMCcsICctaW1hZScsICc8aW5maWxlLm1hZT4nLCAnLW9tYWUnLCAnPG91dGZpbGUubWFlPic=

> <r_epik_Ionization_Penalty>
  0.0732

> <r_epik_Ionization_Penalty_Charging>
  0.0000

> <r_epik_Ionization_Penalty_Neutral>
  0.0732

> <r_epik_State_Penalty>
  0.0526

> <r_epik_Charging_Adjusted_Penalty>
0.0526339

> <i_epik_Tot_Q>
1

> <i_epik_Tot_abs_Q>
1

> <s_epik_Chemistry_Notes>
This compound has an ester and may undergo hydrolysis at high or low pH.

> <s_lp_Force_Field>
S-OPLS

> <r_lp_Energy>
63.9291

> <b_lp_Chiralities_Consistent>
1

> <s_lp_Variant>
O=C(O[C@H]1[C@@H](C(C=C2O)=CC3=C([C@@H]4[C@H](O)CC5=C(O)C=C(O)C=C5O4)C=C(O)C(...-1

> <s_i_glide_gridfile>
glide-grid_1

> <i_i_glide_lignum>
694

> <i_i_glide_rotatable_bonds>
16

> <r_i_docking_score>
-8.66666561923465

> <r_i_glide_ligand_efficiency>
-0.166666646523743

> <r_i_glide_ligand_efficiency_sa>
-0.622085116799852

> <r_i_glide_ligand_efficiency_ln>
-1.75040173981129

> <r_i_glide_gscore>
-8.71926561923465

> <r_i_glide_lipo>
-2.55173015903333

> <r_i_glide_hbond>
-0.48

> <r_i_glide_metal>
0

> <r_i_glide_rewards>
-0.158478025949523

> <r_i_glide_evdw>
-43.3225708007812

> <r_i_glide_ecoul>
-22.5457782745361

> <r_i_glide_erotb>
0.0189378469676853

> <r_i_glide_esite>
0

> <r_i_glide_emodel>
-98.9792149242728

> <r_i_glide_energy>
-65.8683490753174

> <r_i_glide_einternal>
7.73866891860962

> <i_i_glide_confnum>
205

> <i_i_glide_posenum>
98

> <r_i_glide_eff_state_penalty>
0.0526

> <r_lp_tautomer_probability>
1

> <s_m_subgroup_title>
glide-dock_SP_top1262_2_pv

> <s_m_subgroupid>
glide-dock_SP_top1262_2_pv

> <b_m_subgroup_collapsed>
0

$$$$
C1(C2=C3N=CC(C4=CC=C(N5CCNCC5)C=C4)=CN3N=C2)=CC=NC6=CC=CC=C16.Cl.Cl.Cl.Cl
                    3D
 Schrodinger Suite 2021-3.
  0  0  0     0  0            999 V3000
M  V30 BEGIN CTAB
M  V30 COUNTS 54 59 0 0 0
M  V30 BEGIN ATOM
M  V30 1 C  18.0176 37.8415 86.1503 0
M  V30 2 C  17.6946 38.4205 84.9280 0
M  V30 3 C  18.5860 38.3565 83.8637 0
M  V30 4 C  19.8322 37.7531 84.0129 0
M  V30 5 C  20.1889 37.1189 85.2262 0
M  V30 6 C  19.2470 37.1564 86.3066 0
M  V30 7 C  21.4192 36.4068 85.4217 0
M  V30 8 C  21.6040 35.7487 86.6340 0
M  V30 9 C  20.5967 35.7675 87.5837 0
M  V30 10 N  19.4571 36.4832 87.4686 0
M  V30 11 C  22.4776 36.1862 84.3876 0
M  V30 12 C  22.3271 35.5566 83.1465 0
M  V30 13 N  23.4363 35.4247 82.4489 0
M  V30 14 N  24.3865 35.9724 83.2247 0
M  V30 15 C  23.8755 36.4660 84.4373 0
M  V30 16 C  25.7062 36.0947 82.8895 0
M  V30 17 C  26.5766 36.6982 83.8028 0
M  V30 18 C  26.0042 37.1639 84.9983 0
M  V30 19 N  24.6851 37.0539 85.3292 0
M  V30 20 C  28.0481 36.7556 83.5436 0
M  V30 21 C  28.8477 37.7932 84.0337 0
M  V30 22 C  30.2330 37.7657 83.8630 0
M  V30 23 C  30.8615 36.6983 83.2046 0
M  V30 24 C  30.0506 35.6873 82.6746 0
M  V30 25 C  28.6720 35.7159 82.8434 0
M  V30 26 N  32.2526 36.6646 83.0661 0
M  V30 27 C  32.9551 35.7141 82.1809 0
M  V30 28 C  33.3562 34.4080 82.9086 0
M  V30 29 N  34.3330 34.7595 84.0453 0 CHG=1
M  V30 30 C  33.6796 35.7903 84.9840 0
M  V30 31 C  33.1630 37.0123 84.1778 0
M  V30 32 H  17.3110 37.8728 86.9688 0
M  V30 33 H  16.7372 38.9058 84.8052 0
M  V30 34 H  18.3128 38.7801 82.9094 0
M  V30 35 H  20.5195 37.7309 83.1840 0
M  V30 36 H  22.4830 35.1568 86.8176 0
M  V30 37 H  20.6853 35.1342 88.4435 0
M  V30 38 H  21.3992 35.1577 82.7602 0
M  V30 39 H  26.0086 35.7003 81.9291 0
M  V30 40 H  26.6230 37.6153 85.7607 0
M  V30 41 H  28.4022 38.6225 84.5630 0
M  V30 42 H  30.8141 38.5878 84.2535 0
M  V30 43 H  30.4719 34.8438 82.1487 0
M  V30 44 H  28.0984 34.8900 82.4488 0
M  V30 45 H  32.3491 35.4856 81.3029 0
M  V30 46 H  33.8418 36.2039 81.7729 0
M  V30 47 H  33.8832 33.7102 82.2550 0
M  V30 48 H  32.5067 33.8948 83.3672 0
M  V30 49 H  35.1849 35.1445 83.6594 0
M  V30 50 H  34.4481 36.0594 85.7117 0
M  V30 51 H  32.8834 35.2556 85.5037 0
M  V30 52 H  34.0040 37.5844 83.7791 0
M  V30 53 H  32.6701 37.6847 84.8816 0
M  V30 54 H  34.5927 33.9393 84.5888 0
M  V30 END ATOM
M  V30 BEGIN BOND
M  V30 1 2 1 2
M  V30 2 1 1 6
M  V30 3 1 1 32
M  V30 4 1 2 3
M  V30 5 1 2 33
M  V30 6 2 3 4
M  V30 7 1 3 34
M  V30 8 1 4 5
M  V30 9 1 4 35
M  V30 10 2 5 6
M  V30 11 1 5 7
M  V30 12 1 6 10
M  V30 13 2 7 8
M  V30 14 1 7 11
M  V30 15 1 8 9
M  V30 16 1 8 36
M  V30 17 2 9 10
M  V30 18 1 9 37
M  V30 19 1 11 12
M  V30 20 2 11 15
M  V30 21 2 12 13
M  V30 22 1 12 38
M  V30 23 1 13 14
M  V30 24 1 14 15
M  V30 25 1 14 16
M  V30 26 1 15 19
M  V30 27 2 16 17
M  V30 28 1 16 39
M  V30 29 1 17 18
M  V30 30 1 17 20
M  V30 31 2 18 19
M  V30 32 1 18 40
M  V30 33 2 20 21
M  V30 34 1 20 25
M  V30 35 1 21 22
M  V30 36 1 21 41
M  V30 37 2 22 23
M  V30 38 1 22 42
M  V30 39 1 23 24
M  V30 40 1 23 26
M  V30 41 2 24 25
M  V30 42 1 24 43
M  V30 43 1 25 44
M  V30 44 1 26 27
M  V30 45 1 26 31
M  V30 46 1 27 28
M  V30 47 1 27 45
M  V30 48 1 27 46
M  V30 49 1 28 29
M  V30 50 1 28 47
M  V30 51 1 28 48
M  V30 52 1 29 30
M  V30 53 1 29 49
M  V30 54 1 29 54
M  V30 55 1 30 31
M  V30 56 1 30 50
M  V30 57 1 30 51
M  V30 58 1 31 52
M  V30 59 1 31 53
M  V30 END BOND
M  V30 END CTAB
M  END
> <s_m_entry_id>
183

> <s_m_entry_name>
result.2685

> <s_m_Source_Path>
D:\OneDrive - zju.edu.cn\DOC\A-Finished\LCK_VS\Planet\LCK-8617

> <s_m_Source_File>
glide-dock_SP_top1262_2_pv.maegz

> <i_m_Source_File_Index>
183

> <PLANET_affinity>
7.179

> <i_lp_mmshare_version>
54117

> <i_f3d_flags>
0

> <s_epik_input>
W2NIXTFbY0hdW2NIXVtjSF1jKGMxMiluW2NIXVtjSF1jMi1jKFtjSF1uMyljKG4zNCluW2NIXWMoW2NIXTQpLWM1W2NIXVtjSF1jKFtjSF1bY0hdNSlONltDSDJdW0NIMl1bTkhdW0NIMl1bQ0gyXTY=

> <s_epik_cmdline>
J2VwaWtfcHl0aG9uJywgJy1waCcsICc3LjAnLCAnLXRuJywgJzgnLCAnLW1hJywgJzUwMCcsICctaW1hZScsICc8aW5maWxlLm1hZT4nLCAnLW9tYWUnLCAnPG91dGZpbGUubWFlPic=

> <r_epik_Ionization_Penalty>
  0.0136

> <r_epik_Ionization_Penalty_Charging>
  0.0086

> <r_epik_Ionization_Penalty_Neutral>
  0.0050

> <r_epik_State_Penalty>
  0.0065

> <r_epik_Charging_Adjusted_Penalty>
0.0150378

> <i_epik_Tot_Q>
1

> <i_epik_Tot_abs_Q>
1

> <s_lp_Force_Field>
S-OPLS

> <r_lp_Energy>
67.9165

> <b_lp_Chiralities_Consistent>
1

> <s_lp_Variant>
C1(C2=C3N=CC(C4=CC=C(N5CCNCC5)C=C4)=CN3N=C2)=CC=NC6=CC=CC=C16.Cl.Cl.Cl.Cl-1

> <s_i_glide_gridfile>
glide-grid_1

> <i_i_glide_lignum>
2417

> <i_i_glide_rotatable_bonds>
3

> <r_i_docking_score>
-8.65940804441123

> <r_i_glide_ligand_efficiency>
-0.279335743368104

> <r_i_glide_ligand_efficiency_sa>
-0.877499898733489

> <r_i_glide_ligand_efficiency_ln>
-1.95296189300048

> <r_i_glide_gscore>
-8.66590804441123

> <r_i_glide_lipo>
-4.15869737121434

> <r_i_glide_hbond>
-0.0583338868698692

> <r_i_glide_metal>
0

> <r_i_glide_rewards>
-1.51373675365154

> <r_i_glide_evdw>
-48.5980606079102

> <r_i_glide_ecoul>
-5.34485530853271

> <r_i_glide_erotb>
0.355420341482643

> <r_i_glide_esite>
-0.0589290474827186

> <r_i_glide_emodel>
-84.7181712151441

> <r_i_glide_energy>
-53.9429159164429

> <r_i_glide_einternal>
0.634219944477081

> <i_i_glide_confnum>
30

> <i_i_glide_posenum>
258

> <r_i_glide_eff_state_penalty>
0.0065

> <s_m_subgroup_title>
glide-dock_SP_top1262_2_pv

> <s_m_subgroupid>
glide-dock_SP_top1262_2_pv

> <b_m_subgroup_collapsed>
0

$$$$
NC1=C2C(N(C(C)(C)C)N=C2C3=CC=C(C)C=C3)=NC=N1
                    3D
 Schrodinger Suite 2021-3.
  0  0  0     0  0            999 V3000
M  V30 BEGIN CTAB
M  V30 COUNTS 40 42 0 0 0
M  V30 BEGIN ATOM
M  V30 1 N  22.6450 35.1586 83.2436 0
M  V30 2 C  23.9461 35.6313 83.3343 0
M  V30 3 N  24.8392 35.1358 82.4450 0
M  V30 4 C  26.1038 35.6185 82.5184 0
M  V30 5 N  26.5820 36.5674 83.3584 0
M  V30 6 C  25.6679 37.0329 84.2225 0
M  V30 7 C  24.3192 36.6011 84.2860 0
M  V30 8 N  25.8087 38.0112 85.2031 0
M  V30 9 C  26.9575 38.8893 85.5628 0
M  V30 10 C  26.6909 40.2977 84.9803 0
M  V30 11 C  28.2953 38.3523 84.9971 0
M  V30 12 C  27.0921 38.9671 87.1088 0
M  V30 13 N  24.6251 38.2041 85.8361 0
M  V30 14 C  23.7373 37.3666 85.3549 0
M  V30 15 C  22.3564 37.3272 85.9198 0
M  V30 16 C  21.6504 38.5114 86.1440 0
M  V30 17 C  20.3571 38.4749 86.6628 0
M  V30 18 C  19.7652 37.2472 86.9703 0
M  V30 19 C  18.3574 37.2030 87.5397 0
M  V30 20 C  20.4780 36.0636 86.7711 0
M  V30 21 C  21.7582 36.1019 86.2299 0
M  V30 22 H  21.9554 35.5298 83.8749 0
M  V30 23 H  22.4095 34.4550 82.5502 0
M  V30 24 H  26.8224 35.1842 81.8421 0
M  V30 25 H  25.7672 40.7314 85.3705 0
M  V30 26 H  27.4997 40.9926 85.2152 0
M  V30 27 H  26.5958 40.2652 83.8936 0
M  V30 28 H  28.4486 37.3014 85.2433 0
M  V30 29 H  28.3380 38.4340 83.9114 0
M  V30 30 H  29.1523 38.9035 85.3894 0
M  V30 31 H  27.2020 37.9741 87.5482 0
M  V30 32 H  27.9672 39.5490 87.4092 0
M  V30 33 H  26.2254 39.4381 87.5766 0
M  V30 34 H  22.1026 39.4633 85.9084 0
M  V30 35 H  19.8184 39.4001 86.8217 0
M  V30 36 H  18.1303 38.1104 88.1017 0
M  V30 37 H  17.6252 37.0985 86.7386 0
M  V30 38 H  18.2419 36.3648 88.2279 0
M  V30 39 H  20.0384 35.1068 87.0170 0
M  V30 40 H  22.2868 35.1771 86.0756 0
M  V30 END ATOM
M  V30 BEGIN BOND
M  V30 1 1 1 2
M  V30 2 1 1 22
M  V30 3 1 1 23
M  V30 4 2 2 3
M  V30 5 1 2 7
M  V30 6 1 3 4
M  V30 7 2 4 5
M  V30 8 1 4 24
M  V30 9 1 5 6
M  V30 10 2 6 7
M  V30 11 1 6 8
M  V30 12 1 7 14
M  V30 13 1 8 9
M  V30 14 1 8 13
M  V30 15 1 9 10
M  V30 16 1 9 11
M  V30 17 1 9 12
M  V30 18 1 10 25
M  V30 19 1 10 26
M  V30 20 1 10 27
M  V30 21 1 11 28
M  V30 22 1 11 29
M  V30 23 1 11 30
M  V30 24 1 12 31
M  V30 25 1 12 32
M  V30 26 1 12 33
M  V30 27 2 13 14
M  V30 28 1 14 15
M  V30 29 2 15 16
M  V30 30 1 15 21
M  V30 31 1 16 17
M  V30 32 1 16 34
M  V30 33 2 17 18
M  V30 34 1 17 35
M  V30 35 1 18 19
M  V30 36 1 18 20
M  V30 37 1 19 36
M  V30 38 1 19 37
M  V30 39 1 19 38
M  V30 40 2 20 21
M  V30 41 1 20 39
M  V30 42 1 21 40
M  V30 END BOND
M  V30 END CTAB
M  END
> <s_m_entry_id>
189

> <s_m_entry_name>
result.2752

> <s_m_Source_Path>
D:\OneDrive - zju.edu.cn\DOC\A-Finished\LCK_VS\Planet\LCK-8617

> <s_m_Source_File>
glide-dock_SP_top1262_2_pv.maegz

> <i_m_Source_File_Index>
189

> <PLANET_affinity>
7.317

> <i_lp_mmshare_version>
54117

> <i_f3d_flags>
0

> <s_epik_input>
bjFbY0hdbmMoW05IMl0pYyhjMTIpYyhubjJDKFtDSDNdKShbQ0gzXSlbQ0gzXSktYzNbY0hdW2NIXWMoW0NIM10pW2NIXVtjSF0z

> <s_epik_cmdline>
J2VwaWtfcHl0aG9uJywgJy1waCcsICc3LjAnLCAnLXRuJywgJzgnLCAnLW1hJywgJzUwMCcsICctaW1hZScsICc8aW5maWxlLm1hZT4nLCAnLW9tYWUnLCAnPG91dGZpbGUubWFlPic=

> <r_epik_Ionization_Penalty>
  0.0017

> <r_epik_Ionization_Penalty_Charging>
  0.0000

> <r_epik_Ionization_Penalty_Neutral>
  0.0017

> <r_epik_State_Penalty>
  0.0012

> <r_epik_Charging_Adjusted_Penalty>
0.00116084

> <i_epik_Tot_Q>
0

> <i_epik_Tot_abs_Q>
0

> <s_lp_Force_Field>
S-OPLS

> <r_lp_Energy>
19.8878

> <b_lp_Chiralities_Consistent>
1

> <s_lp_Variant>
NC1=C2C(N(C(C)(C)C)N=C2C3=CC=C(C)C=C3)=NC=N1-1

> <s_i_glide_gridfile>
glide-grid_1

> <i_i_glide_lignum>
2220

> <i_i_glide_rotatable_bonds>
2

> <r_i_docking_score>
-8.63140330863663

> <r_i_glide_ligand_efficiency>
-0.411019205173173

> <r_i_glide_ligand_efficiency_sa>
-1.13397082095842

> <r_i_glide_ligand_efficiency_ln>
-2.13409702666777

> <r_i_glide_gscore>
-8.63260330863663

> <r_i_glide_lipo>
-2.52405254079344

> <r_i_glide_hbond>
-0.579449391053623

> <r_i_glide_metal>
0

> <r_i_glide_rewards>
-3.32677146749986

> <r_i_glide_evdw>
-31.357666015625

> <r_i_glide_ecoul>
-5.29522705078125

> <r_i_glide_erotb>
0.15983744910873

> <r_i_glide_esite>
0

> <r_i_glide_emodel>
-54.3002627717005

> <r_i_glide_energy>
-36.6528930664062

> <r_i_glide_einternal>
2.44961142539978

> <i_i_glide_confnum>
2

> <i_i_glide_posenum>
351

> <r_i_glide_eff_state_penalty>
0.0012

> <s_m_subgroup_title>
glide-dock_SP_top1262_2_pv

> <s_m_subgroupid>
glide-dock_SP_top1262_2_pv

> <b_m_subgroup_collapsed>
0

$$$$
OC[C@@H](NCC1=CC(C)=C(C=C1OCC2=CC=CC(C#N)=C2)OCC3=CC=CC(C4=CC=C5OCCOC5=C4)=C3...
                    3D
 Schrodinger Suite 2021-3.
  0  0  0     0  0            999 V3000
M  V30 BEGIN CTAB
M  V30 COUNTS 78 82 0 0 0
M  V30 BEGIN ATOM
M  V30 1 N  28.3886 46.5415 84.1866 0
M  V30 2 C  28.1488 45.4478 84.4802 0
M  V30 3 C  27.8403 44.0723 84.8523 0
M  V30 4 C  28.8627 43.1894 85.2224 0
M  V30 5 C  26.5127 43.6314 84.8402 0
M  V30 6 C  26.2126 42.3168 85.1911 0
M  V30 7 C  27.2339 41.4355 85.5462 0
M  V30 8 C  28.5681 41.8590 85.5405 0
M  V30 9 C  29.6978 40.8960 85.8993 0
M  V30 10 O  30.4468 40.5076 84.7383 0
M  V30 11 C  30.2159 39.2838 84.1308 0
M  V30 12 C  29.0146 38.5774 84.2794 0
M  V30 13 C  28.7907 37.3504 83.6389 0
M  V30 14 C  29.8436 36.7668 82.9217 0
M  V30 15 C  29.6769 35.4026 82.2761 0
M  V30 16 C  31.0472 37.4570 82.7701 0
M  V30 17 C  31.2159 38.7388 83.3093 0
M  V30 18 C  32.4903 39.5136 82.9901 0
M  V30 19 N  32.6823 39.7182 81.4705 0 CHG=1
M  V30 20 C  33.8451 40.5767 81.0097 0 CFG=1
M  V30 21 C  35.2377 39.8542 81.2105 0
M  V30 22 O  35.2335 38.6538 81.5708 0 CHG=-1
M  V30 23 O  36.2196 40.5934 80.9662 0
M  V30 24 C  33.6776 41.0234 79.5297 0
M  V30 25 O  33.6824 39.9362 78.6159 0
M  V30 26 O  27.5680 36.6965 83.6464 0
M  V30 27 C  26.4718 37.2884 84.3475 0
M  V30 28 C  25.1312 36.6233 84.0307 0
M  V30 29 C  25.0253 35.7397 82.9483 0
M  V30 30 C  23.7922 35.1963 82.6022 0
M  V30 31 C  22.6608 35.5173 83.3431 0
M  V30 32 C  22.7416 36.3602 84.4563 0
M  V30 33 C  23.9847 36.9412 84.7886 0
M  V30 34 C  24.0909 37.9551 85.9345 0
M  V30 35 C  21.5098 36.5921 85.2548 0
M  V30 36 C  21.3908 36.0368 86.5371 0
M  V30 37 C  20.2383 36.2345 87.2979 0
M  V30 38 C  20.4457 37.3435 84.7341 0
M  V30 39 C  19.2970 37.5564 85.4970 0
M  V30 40 C  19.1943 36.9954 86.7826 0
M  V30 41 O  18.2536 38.2488 84.9133 0
M  V30 42 C  17.2723 38.7094 85.8503 0
M  V30 43 C  16.9209 37.6029 86.8749 0
M  V30 44 O  18.0927 37.1963 87.5897 0
M  V30 45 H  29.8928 43.5240 85.2428 0
M  V30 46 H  25.7065 44.2982 84.5562 0
M  V30 47 H  25.1846 41.9824 85.1873 0
M  V30 48 H  26.9714 40.4291 85.8291 0
M  V30 49 H  30.3854 41.4170 86.5678 0
M  V30 50 H  29.3398 40.0489 86.4903 0
M  V30 51 H  28.2381 39.0090 84.8750 0
M  V30 52 H  30.5303 35.1179 81.6606 0
M  V30 53 H  29.5328 34.6479 83.0486 0
M  V30 54 H  28.7926 35.3890 81.6438 0
M  V30 55 H  31.8408 37.0116 82.1872 0
M  V30 56 H  32.4909 40.5238 83.4070 0
M  V30 57 H  33.3723 38.9821 83.3465 0
M  V30 58 H  32.8049 38.8228 81.0178 0
M  V30 59 H  33.8269 41.4571 81.6548 0
M  V30 60 H  32.7351 41.5567 79.4059 0
M  V30 61 H  34.4633 41.7259 79.2437 0
M  V30 62 H  32.7739 39.6376 78.4648 0
M  V30 63 H  26.6735 37.2177 85.4194 0
M  V30 64 H  26.3579 38.3408 84.0772 0
M  V30 65 H  25.8904 35.4957 82.3502 0
M  V30 66 H  23.6966 34.5359 81.7538 0
M  V30 67 H  21.7149 35.0748 83.0609 0
M  V30 68 H  23.1272 38.2790 86.3255 0
M  V30 69 H  24.6830 37.5565 86.7568 0
M  V30 70 H  24.5894 38.8595 85.5880 0
M  V30 71 H  22.1934 35.4383 86.9419 0
M  V30 72 H  20.1445 35.7938 88.2794 0
M  V30 73 H  20.5111 37.7632 83.7399 0
M  V30 74 H  16.3821 39.0499 85.3225 0
M  V30 75 H  17.6875 39.5583 86.3952 0
M  V30 76 H  16.5068 36.7388 86.3537 0
M  V30 77 H  16.1635 37.9557 87.5758 0
M  V30 78 H  31.8464 40.1471 81.0993 0
M  V30 END ATOM
M  V30 BEGIN BOND
M  V30 1 3 1 2
M  V30 2 1 2 3
M  V30 3 2 3 4
M  V30 4 1 3 5
M  V30 5 1 4 8
M  V30 6 1 4 45
M  V30 7 2 5 6
M  V30 8 1 5 46
M  V30 9 1 6 7
M  V30 10 1 6 47
M  V30 11 2 7 8
M  V30 12 1 7 48
M  V30 13 1 8 9
M  V30 14 1 9 10
M  V30 15 1 9 49
M  V30 16 1 9 50
M  V30 17 1 10 11
M  V30 18 2 11 12
M  V30 19 1 11 17
M  V30 20 1 12 13
M  V30 21 1 12 51
M  V30 22 2 13 14
M  V30 23 1 13 26
M  V30 24 1 14 15
M  V30 25 1 14 16
M  V30 26 1 15 52
M  V30 27 1 15 53
M  V30 28 1 15 54
M  V30 29 2 16 17
M  V30 30 1 16 55
M  V30 31 1 17 18
M  V30 32 1 18 19
M  V30 33 1 18 56
M  V30 34 1 18 57
M  V30 35 1 19 20
M  V30 36 1 19 58
M  V30 37 1 19 78
M  V30 38 1 20 21
M  V30 39 1 20 24
M  V30 40 1 20 59
M  V30 41 1 21 22
M  V30 42 2 21 23
M  V30 43 1 24 25
M  V30 44 1 24 60
M  V30 45 1 24 61
M  V30 46 1 25 62
M  V30 47 1 26 27
M  V30 48 1 27 28
M  V30 49 1 27 63
M  V30 50 1 27 64
M  V30 51 2 28 29
M  V30 52 1 28 33
M  V30 53 1 29 30
M  V30 54 1 29 65
M  V30 55 2 30 31
M  V30 56 1 30 66
M  V30 57 1 31 32
M  V30 58 1 31 67
M  V30 59 2 32 33
M  V30 60 1 32 35
M  V30 61 1 33 34
M  V30 62 1 34 68
M  V30 63 1 34 69
M  V30 64 1 34 70
M  V30 65 2 35 36
M  V30 66 1 35 38
M  V30 67 1 36 37
M  V30 68 1 36 71
M  V30 69 2 37 40
M  V30 70 1 37 72
M  V30 71 2 38 39
M  V30 72 1 38 73
M  V30 73 1 39 40
M  V30 74 1 39 41
M  V30 75 1 40 44
M  V30 76 1 41 42
M  V30 77 1 42 43
M  V30 78 1 42 74
M  V30 79 1 42 75
M  V30 80 1 43 44
M  V30 81 1 43 76
M  V30 82 1 43 77
M  V30 END BOND
M  V30 END CTAB
M  END
> <s_m_entry_id>
190

> <s_m_entry_name>
result.5299

> <s_m_Source_Path>
D:\OneDrive - zju.edu.cn\DOC\A-Finished\LCK_VS\Planet\LCK-8617

> <s_m_Source_File>
glide-dock_SP_top1262_2_pv.maegz

> <i_m_Source_File_Index>
190

> <PLANET_affinity>
7.477

> <i_lp_mmshare_version>
54117

> <i_f3d_flags>
0

> <s_epik_input>
TiNDYzFbY0hdYyhbY0hdW2NIXVtjSF0xKVtDSDJdT2MyW2NIXWMoYyhbQ0gzXSlbY0hdYzJbQ0gyXVtOSF1bQ0BASF0oQyg9TylbT0hdKVtDSDJdW09IXSlPW0NIMl1jM1tjSF1bY0hdW2NIXWMoYzNbQ0gzXSktYyhbY0hdNClbY0hdW2NIXWMoYzQ1KU9bQ0gyXVtDSDJdTzU=

> <s_epik_cmdline>
J2VwaWtfcHl0aG9uJywgJy1waCcsICc3LjAnLCAnLXRuJywgJzgnLCAnLW1hJywgJzUwMCcsICctaW1hZScsICc8aW5maWxlLm1hZT4nLCAnLW9tYWUnLCAnPG91dGZpbGUubWFlPic=

> <r_epik_Ionization_Penalty>
  0.0305

> <r_epik_Ionization_Penalty_Charging>
  0.0305

> <r_epik_Ionization_Penalty_Neutral>
  0.0000

> <r_epik_State_Penalty>
  0.0251

> <r_epik_Charging_Adjusted_Penalty>
0.0556158

> <i_epik_Tot_Q>
0

> <i_epik_Tot_abs_Q>
2

> <s_lp_Force_Field>
S-OPLS

> <r_lp_Energy>
70.924

> <b_lp_Chiralities_Consistent>
1

> <s_lp_Variant>
OC[C@@H](NCC1=CC(C)=C(C=C1OCC2=CC=CC(C#N)=C2)OCC3=CC=CC(C4=CC=C5OCCOC5=C4)=C3...-1

> <s_i_glide_gridfile>
glide-grid_1

> <i_i_glide_lignum>
1962

> <i_i_glide_rotatable_bonds>
13

> <r_i_docking_score>
-8.62942597032637

> <r_i_glide_ligand_efficiency>
-0.196123317507417

> <r_i_glide_ligand_efficiency_sa>
-0.692383626607566

> <r_i_glide_ligand_efficiency_ln>
-1.80373827766916

> <r_i_glide_gscore>
-8.65452597032637

> <r_i_glide_lipo>
-4.45120383392373

> <r_i_glide_hbond>
-0.32

> <r_i_glide_metal>
0

> <r_i_glide_rewards>
-0.186775855575691

> <r_i_glide_evdw>
-58.6960029602051

> <r_i_glide_ecoul>
-8.58185291290283

> <r_i_glide_erotb>
0.540138962188284

> <r_i_glide_esite>
-0.0146071580695511

> <r_i_glide_emodel>
-99.3249318444462

> <r_i_glide_energy>
-67.2778558731079

> <r_i_glide_einternal>
9.1016731262207

> <i_i_glide_confnum>
710

> <i_i_glide_posenum>
130

> <r_i_glide_eff_state_penalty>
0.0251

> <r_lp_tautomer_probability>
1

> <s_m_subgroup_title>
glide-dock_SP_top1262_2_pv

> <s_m_subgroupid>
glide-dock_SP_top1262_2_pv

> <b_m_subgroup_collapsed>
0

$$$$
COC1=CC=C(C=N1)C2=CC=C(C3=C2)N=CC(N4C)=C3N(C4=O)C5=CC=C(C(C(F)(F)F)=C5)N6CCNC...
                    3D
 Schrodinger Suite 2021-3.
  0  0  0     0  0            999 V3000
M  V30 BEGIN CTAB
M  V30 COUNTS 65 70 0 0 0
M  V30 BEGIN ATOM
M  V30 1 C  19.3254 41.1593 87.6434 0
M  V30 2 O  19.2850 39.7338 87.6436 0
M  V30 3 C  20.2086 39.0443 86.8862 0
M  V30 4 C  20.1255 37.6529 86.8357 0
M  V30 5 C  21.0625 36.9515 86.0732 0
M  V30 6 C  22.0654 37.6456 85.3821 0
M  V30 7 C  22.0699 39.0427 85.4850 0
M  V30 8 N  21.1719 39.7392 86.2178 0
M  V30 9 C  23.1010 36.9402 84.5855 0
M  V30 10 C  22.7696 35.8634 83.7625 0
M  V30 11 C  23.7471 35.1887 83.0327 0
M  V30 12 C  24.4257 37.3772 84.6379 0
M  V30 13 C  25.4491 36.7224 83.9146 0
M  V30 14 C  25.1019 35.5787 83.1266 0
M  V30 15 C  26.8218 37.1192 83.9109 0
M  V30 16 C  27.7358 36.3573 83.2406 0
M  V30 17 C  27.3392 35.2232 82.5474 0
M  V30 18 N  26.0396 34.8441 82.4602 0
M  V30 19 N  28.9731 36.9275 83.4330 0
M  V30 20 C  30.2399 36.4469 82.8841 0
M  V30 21 C  28.8714 38.0491 84.1918 0
M  V30 22 O  29.7803 38.8082 84.5359 0
M  V30 23 N  27.5431 38.1680 84.4707 0
M  V30 24 C  26.9684 39.2998 85.0575 0
M  V30 25 C  26.6055 40.3872 84.2656 0
M  V30 26 C  25.9600 41.4772 84.8417 0
M  V30 27 C  25.6653 41.5130 86.2131 0
M  V30 28 C  26.0559 40.4137 87.0236 0
M  V30 29 C  25.8837 40.3919 88.5524 0
M  V30 30 F  26.7458 39.5570 89.1336 0
M  V30 31 F  26.0599 41.5919 89.1053 0
M  V30 32 F  24.6573 39.9568 88.8441 0
M  V30 33 C  26.7090 39.3213 86.4286 0
M  V30 34 N  24.9814 42.6248 86.7043 0
M  V30 35 C  25.2655 44.0082 86.2875 0
M  V30 36 C  24.1028 44.6633 85.5182 0
M  V30 37 N  22.8809 44.6978 86.4444 0 CHG=1
M  V30 38 C  22.5086 43.2602 86.8398 0
M  V30 39 C  23.7278 42.5470 87.4807 0
M  V30 40 H  18.4828 41.5579 88.2015 0
M  V30 41 H  20.2392 41.5220 88.1153 0
M  V30 42 H  19.2796 41.5566 86.6278 0
M  V30 43 H  19.3537 37.1285 87.3787 0
M  V30 44 H  21.0256 35.8718 86.0449 0
M  V30 45 H  22.8124 39.6347 84.9666 0
M  V30 46 H  21.7430 35.5339 83.6831 0
M  V30 47 H  23.4627 34.3567 82.4093 0
M  V30 48 H  24.6685 38.2185 85.2600 0
M  V30 49 H  28.0555 34.5924 82.0429 0
M  V30 50 H  30.4527 35.4404 83.2500 0
M  V30 51 H  30.1866 36.4008 81.7949 0
M  V30 52 H  31.0833 37.0872 83.1536 0
M  V30 53 H  26.8014 40.3777 83.2032 0
M  V30 54 H  25.6625 42.2915 84.1983 0
M  V30 55 H  27.0112 38.4731 87.0279 0
M  V30 56 H  26.1555 44.0251 85.6532 0
M  V30 57 H  25.5457 44.5910 87.1664 0
M  V30 58 H  24.3091 45.6982 85.2435 0
M  V30 59 H  23.8004 44.1118 84.6250 0
M  V30 60 H  23.0663 45.2558 87.2664 0
M  V30 61 H  21.6694 43.3638 87.5307 0
M  V30 62 H  22.1581 42.7673 85.9326 0
M  V30 63 H  23.9081 42.9098 88.4944 0
M  V30 64 H  23.4427 41.5022 87.5871 0
M  V30 65 H  22.1013 45.1216 85.9480 0
M  V30 END ATOM
M  V30 BEGIN BOND
M  V30 1 1 1 2
M  V30 2 1 1 40
M  V30 3 1 1 41
M  V30 4 1 1 42
M  V30 5 1 2 3
M  V30 6 2 3 4
M  V30 7 1 3 8
M  V30 8 1 4 5
M  V30 9 1 4 43
M  V30 10 2 5 6
M  V30 11 1 5 44
M  V30 12 1 6 7
M  V30 13 1 6 9
M  V30 14 2 7 8
M  V30 15 1 7 45
M  V30 16 2 9 10
M  V30 17 1 9 12
M  V30 18 1 10 11
M  V30 19 1 10 46
M  V30 20 2 11 14
M  V30 21 1 11 47
M  V30 22 2 12 13
M  V30 23 1 12 48
M  V30 24 1 13 14
M  V30 25 1 13 15
M  V30 26 1 14 18
M  V30 27 2 15 16
M  V30 28 1 15 23
M  V30 29 1 16 17
M  V30 30 1 16 19
M  V30 31 2 17 18
M  V30 32 1 17 49
M  V30 33 1 19 20
M  V30 34 1 19 21
M  V30 35 1 20 50
M  V30 36 1 20 51
M  V30 37 1 20 52
M  V30 38 2 21 22
M  V30 39 1 21 23
M  V30 40 1 23 24
M  V30 41 2 24 25
M  V30 42 1 24 33
M  V30 43 1 25 26
M  V30 44 1 25 53
M  V30 45 2 26 27
M  V30 46 1 26 54
M  V30 47 1 27 28
M  V30 48 1 27 34
M  V30 49 1 28 29
M  V30 50 2 28 33
M  V30 51 1 29 30
M  V30 52 1 29 31
M  V30 53 1 29 32
M  V30 54 1 33 55
M  V30 55 1 34 35
M  V30 56 1 34 39
M  V30 57 1 35 36
M  V30 58 1 35 56
M  V30 59 1 35 57
M  V30 60 1 36 37
M  V30 61 1 36 58
M  V30 62 1 36 59
M  V30 63 1 37 38
M  V30 64 1 37 60
M  V30 65 1 37 65
M  V30 66 1 38 39
M  V30 67 1 38 61
M  V30 68 1 38 62
M  V30 69 1 39 63
M  V30 70 1 39 64
M  V30 END BOND
M  V30 END CTAB
M  END
> <s_m_entry_id>
191

> <s_m_entry_name>
result.1718

> <s_m_Source_Path>
D:\OneDrive - zju.edu.cn\DOC\A-Finished\LCK_VS\Planet\LCK-8617

> <s_m_Source_File>
glide-dock_SP_top1262_2_pv.maegz

> <i_m_Source_File_Index>
191

> <PLANET_affinity>
9.375

> <i_lp_mmshare_version>
54117

> <i_f3d_flags>
0

> <s_epik_input>
W0NIM11PYzFbY0hdW2NIXWMoW2NIXW4xKS1jKFtjSF0yKVtjSF1bY0hdYyhjMjMpbltjSF1jNGMzbihjKD1PKW40W0NIM10pLWM1W2NIXVtjSF1jKGMoQyhGKShGKUYpW2NIXTUpTjZbQ0gyXVtDSDJdW05IXVtDSDJdW0NIMl02

> <s_epik_cmdline>
J2VwaWtfcHl0aG9uJywgJy1waCcsICc3LjAnLCAnLXRuJywgJzgnLCAnLW1hJywgJzUwMCcsICctaW1hZScsICc8aW5maWxlLm1hZT4nLCAnLW9tYWUnLCAnPG91dGZpbGUubWFlPic=

> <r_epik_Ionization_Penalty>
  0.0097

> <r_epik_Ionization_Penalty_Charging>
  0.0086

> <r_epik_Ionization_Penalty_Neutral>
  0.0011

> <r_epik_State_Penalty>
  0.0065

> <r_epik_Charging_Adjusted_Penalty>
0.0150378

> <i_epik_Tot_Q>
1

> <i_epik_Tot_abs_Q>
1

> <s_lp_Force_Field>
S-OPLS

> <r_lp_Energy>
79.4936

> <b_lp_Chiralities_Consistent>
1

> <s_lp_Variant>
COC1=CC=C(C=N1)C2=CC=C(C3=C2)N=CC(N4C)=C3N(C4=O)C5=CC=C(C(C(F)(F)F)=C5)N6CCNC...-1

> <s_i_glide_gridfile>
glide-grid_1

> <i_i_glide_lignum>
389

> <i_i_glide_rotatable_bonds>
5

> <r_i_docking_score>
-8.62691030228215

> <r_i_glide_ligand_efficiency>
-0.221202828263645

> <r_i_glide_ligand_efficiency_sa>
-0.750145561518702

> <r_i_glide_ligand_efficiency_ln>
-1.84985445822116

> <r_i_glide_gscore>
-8.63341030228215

> <r_i_glide_lipo>
-3.01668697244205

> <r_i_glide_hbond>
-0.32315422482335

> <r_i_glide_metal>
0

> <r_i_glide_rewards>
-1.87413119385809

> <r_i_glide_evdw>
-44.8235893249512

> <r_i_glide_ecoul>
-8.74017715454102

> <r_i_glide_erotb>
0.215949480246856

> <r_i_glide_esite>
-0.0831813519768094

> <r_i_glide_emodel>
-86.6324019472371

> <r_i_glide_energy>
-53.5637664794922

> <r_i_glide_einternal>
1.70393943786621

> <i_i_glide_confnum>
3

> <i_i_glide_posenum>
93

> <r_i_glide_eff_state_penalty>
0.0065

> <r_lp_tautomer_probability>
1

> <s_m_subgroup_title>
glide-dock_SP_top1262_2_pv

> <s_m_subgroupid>
glide-dock_SP_top1262_2_pv

> <b_m_subgroup_collapsed>
0

$$$$
O=C(C1=CC=C(C=C1)C(C)(C)C)NC2=CC=CC(C(N=C3NC4=CC=C(C=C4)C(N5CCOCC5)=O)=CN(C3=...
                    3D
 Schrodinger Suite 2021-3.
  0  0  0     0  0            999 V3000
M  V30 BEGIN CTAB
M  V30 COUNTS 80 84 0 0 0
M  V30 BEGIN ATOM
M  V30 1 C  26.5822 41.9605 91.6789 0
M  V30 2 C  25.6323 41.9173 92.6972 0
M  V30 3 C  24.2894 41.6169 92.4202 0
M  V30 4 C  23.2077 41.5521 93.5283 0
M  V30 5 C  23.6851 42.1418 94.8816 0
M  V30 6 C  22.8201 40.0711 93.7491 0
M  V30 7 C  21.9472 42.3617 93.1226 0
M  V30 8 C  23.9306 41.3472 91.0939 0
M  V30 9 C  24.8752 41.3867 90.0767 0
M  V30 10 C  26.2165 41.6830 90.3586 0
M  V30 11 C  27.2570 41.6892 89.2618 0
M  V30 12 O  28.2576 42.4054 89.3323 0
M  V30 13 N  27.0053 40.8023 88.2804 0
M  V30 14 C  27.6725 40.5321 87.0721 0
M  V30 15 C  28.5366 41.4507 86.4602 0
M  V30 16 C  29.0960 41.1633 85.2199 0
M  V30 17 C  28.7709 39.9787 84.5675 0
M  V30 18 C  27.8973 39.0429 85.1417 0
M  V30 19 C  27.3846 39.3064 86.4354 0
M  V30 20 C  26.5517 38.2607 87.1897 0
M  V30 21 C  27.5620 37.8188 84.3554 0
M  V30 22 N  26.2365 37.4489 84.3098 0
M  V30 23 C  25.9042 36.3900 83.6411 0
M  V30 24 C  26.8491 35.5561 82.8444 0
M  V30 25 O  26.4795 34.5419 82.2441 0
M  V30 26 N  28.1510 36.0220 82.8637 0
M  V30 27 C  28.4776 37.1363 83.6121 0
M  V30 28 C  29.1394 35.3243 82.0417 0
M  V30 29 N  24.5848 35.9495 83.6007 0
M  V30 30 C  23.4611 36.3099 84.3539 0
M  V30 31 C  23.5587 36.7532 85.6721 0
M  V30 32 C  22.4227 37.1373 86.3721 0
M  V30 33 C  21.1752 37.0843 85.7499 0
M  V30 34 C  21.0711 36.5521 84.4580 0
M  V30 35 C  22.2091 36.1609 83.7652 0
M  V30 36 C  19.9702 37.6036 86.4909 0
M  V30 37 O  19.7727 37.2111 87.6424 0
M  V30 38 N  19.1824 38.5284 85.8813 0
M  V30 39 C  19.3584 39.0114 84.5006 0
M  V30 40 C  18.1395 38.4834 83.7133 0
M  V30 41 O  16.9587 39.0095 84.3098 0
M  V30 42 C  16.7899 38.6146 85.6715 0
M  V30 43 C  17.9837 39.0576 86.5461 0
M  V30 44 H  27.6078 42.1907 91.9281 0
M  V30 45 H  25.9702 42.1216 93.7001 0
M  V30 46 H  22.8933 42.1434 95.6261 0
M  V30 47 H  24.0337 43.1707 94.7786 0
M  V30 48 H  24.4880 41.5570 95.3131 0
M  V30 49 H  22.4281 39.6169 92.8379 0
M  V30 50 H  23.6832 39.4742 94.0422 0
M  V30 51 H  22.0597 39.9583 94.5250 0
M  V30 52 H  21.4506 41.9520 92.2434 0
M  V30 53 H  21.2018 42.3730 93.9201 0
M  V30 54 H  22.2006 43.4012 92.9037 0
M  V30 55 H  22.9132 41.0975 90.8392 0
M  V30 56 H  24.5443 41.1851 89.0679 0
M  V30 57 H  26.2096 40.2064 88.4426 0
M  V30 58 H  28.7681 42.3980 86.9235 0
M  V30 59 H  29.7624 41.8738 84.7492 0
M  V30 60 H  29.1915 39.8006 83.5887 0
M  V30 61 H  25.4912 38.4867 87.0855 0
M  V30 62 H  26.7557 37.2426 86.8645 0
M  V30 63 H  26.7877 38.2538 88.2588 0
M  V30 64 H  29.5317 37.3754 83.5763 0
M  V30 65 H  29.3325 35.9407 81.1668 0
M  V30 66 H  30.0671 35.1736 82.5883 0
M  V30 67 H  28.8095 34.3538 81.6783 0
M  V30 68 H  24.3853 35.2685 82.8816 0
M  V30 69 H  24.5170 36.7866 86.1588 0
M  V30 70 H  22.5209 37.5047 87.3834 0
M  V30 71 H  20.1137 36.4520 83.9732 0
M  V30 72 H  22.1140 35.7690 82.7621 0
M  V30 73 H  19.2810 40.0954 84.5893 0
M  V30 74 H  20.3409 38.9031 84.0440 0
M  V30 75 H  18.1065 37.3925 83.7049 0
M  V30 76 H  18.1978 38.7647 82.6652 0
M  V30 77 H  16.6730 37.5316 85.7354 0
M  V30 78 H  15.8607 39.0425 86.0440 0
M  V30 79 H  17.8847 38.7761 87.5958 0
M  V30 80 H  18.0913 40.1412 86.5053 0
M  V30 END ATOM
M  V30 BEGIN BOND
M  V30 1 2 1 2
M  V30 2 1 1 10
M  V30 3 1 1 44
M  V30 4 1 2 3
M  V30 5 1 2 45
M  V30 6 1 3 4
M  V30 7 2 3 8
M  V30 8 1 4 5
M  V30 9 1 4 6
M  V30 10 1 4 7
M  V30 11 1 5 46
M  V30 12 1 5 47
M  V30 13 1 5 48
M  V30 14 1 6 49
M  V30 15 1 6 50
M  V30 16 1 6 51
M  V30 17 1 7 52
M  V30 18 1 7 53
M  V30 19 1 7 54
M  V30 20 1 8 9
M  V30 21 1 8 55
M  V30 22 2 9 10
M  V30 23 1 9 56
M  V30 24 1 10 11
M  V30 25 2 11 12
M  V30 26 1 11 13
M  V30 27 1 13 14
M  V30 28 1 13 57
M  V30 29 2 14 15
M  V30 30 1 14 19
M  V30 31 1 15 16
M  V30 32 1 15 58
M  V30 33 2 16 17
M  V30 34 1 16 59
M  V30 35 1 17 18
M  V30 36 1 17 60
M  V30 37 2 18 19
M  V30 38 1 18 21
M  V30 39 1 19 20
M  V30 40 1 20 61
M  V30 41 1 20 62
M  V30 42 1 20 63
M  V30 43 1 21 22
M  V30 44 2 21 27
M  V30 45 2 22 23
M  V30 46 1 23 24
M  V30 47 1 23 29
M  V30 48 2 24 25
M  V30 49 1 24 26
M  V30 50 1 26 27
M  V30 51 1 26 28
M  V30 52 1 27 64
M  V30 53 1 28 65
M  V30 54 1 28 66
M  V30 55 1 28 67
M  V30 56 1 29 30
M  V30 57 1 29 68
M  V30 58 2 30 31
M  V30 59 1 30 35
M  V30 60 1 31 32
M  V30 61 1 31 69
M  V30 62 2 32 33
M  V30 63 1 32 70
M  V30 64 1 33 34
M  V30 65 1 33 36
M  V30 66 2 34 35
M  V30 67 1 34 71
M  V30 68 1 35 72
M  V30 69 2 36 37
M  V30 70 1 36 38
M  V30 71 1 38 39
M  V30 72 1 38 43
M  V30 73 1 39 40
M  V30 74 1 39 73
M  V30 75 1 39 74
M  V30 76 1 40 41
M  V30 77 1 40 75
M  V30 78 1 40 76
M  V30 79 1 41 42
M  V30 80 1 42 43
M  V30 81 1 42 77
M  V30 82 1 42 78
M  V30 83 1 43 79
M  V30 84 1 43 80
M  V30 END BOND
M  V30 END CTAB
M  END
> <s_m_entry_id>
193

> <s_m_entry_name>
result.4445

> <s_m_Source_Path>
D:\OneDrive - zju.edu.cn\DOC\A-Finished\LCK_VS\Planet\LCK-8617

> <s_m_Source_File>
glide-dock_SP_top1262_2_pv.maegz

> <i_m_Source_File_Index>
193

> <PLANET_affinity>
8.641

> <i_lp_mmshare_version>
54117

> <i_f3d_flags>
0

> <s_epik_input>
W0NIM11DKFtDSDNdKShbQ0gzXSljMVtjSF1bY0hdYyhbY0hdW2NIXTEpQyg9TylbTkhdYzJbY0hdW2NIXVtjSF1jKGMyW0NIM10pLWMzbmMoYyg9TyluKFtjSF0zKVtDSDNdKVtOSF1jNFtjSF1bY0hdYyhbY0hdW2NIXTQpQyg9TylONVtDSDJdW0NIMl1PW0NIMl1bQ0gyXTU=

> <s_epik_cmdline>
J2VwaWtfcHl0aG9uJywgJy1waCcsICc3LjAnLCAnLXRuJywgJzgnLCAnLW1hJywgJzUwMCcsICctaW1hZScsICc8aW5maWxlLm1hZT4nLCAnLW9tYWUnLCAnPG91dGZpbGUubWFlPic=

> <r_epik_Ionization_Penalty>
  0.0005

> <r_epik_Ionization_Penalty_Charging>
  0.0000

> <r_epik_Ionization_Penalty_Neutral>
  0.0005

> <r_epik_State_Penalty>
  0.0003

> <r_epik_Charging_Adjusted_Penalty>
0.000330964

> <i_epik_Tot_Q>
0

> <i_epik_Tot_abs_Q>
0

> <s_lp_Force_Field>
S-OPLS

> <r_lp_Energy>
95.3968

> <b_lp_Chiralities_Consistent>
1

> <s_lp_Variant>
O=C(C1=CC=C(C=C1)C(C)(C)C)NC2=CC=CC(C(N=C3NC4=CC=C(C=C4)C(N5CCOCC5)=O)=CN(C3=...-1

> <s_i_glide_gridfile>
glide-grid_1

> <i_i_glide_lignum>
693

> <i_i_glide_rotatable_bonds>
9

> <r_i_docking_score>
-8.6211645786999

> <r_i_glide_ligand_efficiency>
-0.200492199504649

> <r_i_glide_ligand_efficiency_sa>
-0.702403981986627

> <r_i_glide_ligand_efficiency_ln>
-1.81071250298499

> <r_i_glide_gscore>
-8.6214645786999

> <r_i_glide_lipo>
-4.00385973478233

> <r_i_glide_hbond>
-0.532268889220189

> <r_i_glide_metal>
0

> <r_i_glide_rewards>
-0.940675435357361

> <r_i_glide_evdw>
-60.9918594360352

> <r_i_glide_ecoul>
-3.28944230079651

> <r_i_glide_erotb>
0.398348797581221

> <r_i_glide_esite>
0

> <r_i_glide_emodel>
-93.9228175564295

> <r_i_glide_energy>
-64.2813017368317

> <r_i_glide_einternal>
6.62549686431885

> <i_i_glide_confnum>
279

> <i_i_glide_posenum>
346

> <r_i_glide_eff_state_penalty>
0.0003

> <r_lp_tautomer_probability>
1

> <s_m_subgroup_title>
glide-dock_SP_top1262_2_pv

> <s_m_subgroupid>
glide-dock_SP_top1262_2_pv

> <b_m_subgroup_collapsed>
0

$$$$
O=C([C@H]1[C@H](C(C2=CC=C(C3=NNC(C)=C3)C=C2)=O)CCCC1)NC4=C(N(N=C4)CCN5)C5=O
                    3D
 Schrodinger Suite 2021-3.
  0  0  0     0  0            999 V3000
M  V30 BEGIN CTAB
M  V30 COUNTS 59 63 0 0 0
M  V30 BEGIN ATOM
M  V30 1 O  25.6421 37.8741 86.4404 0
M  V30 2 C  25.9569 37.5578 85.2962 0
M  V30 3 N  27.1734 37.9091 84.8174 0
M  V30 4 C  27.6681 37.6771 83.4458 0
M  V30 5 C  27.1260 36.3550 82.8429 0
M  V30 6 N  25.7193 36.2547 83.1965 0
M  V30 7 C  25.1674 36.8121 84.3337 0
M  V30 8 N  24.8609 35.4809 82.5204 0
M  V30 9 C  23.7417 35.5566 83.1968 0
M  V30 10 C  23.8485 36.3697 84.3418 0
M  V30 11 N  22.8964 36.6854 85.3019 0
M  V30 12 C  21.5631 36.6543 85.0991 0
M  V30 13 O  21.0380 36.3562 84.0294 0
M  V30 14 C  20.6406 37.0182 86.2835 0 CFG=1
M  V30 15 C  19.2848 37.6638 85.8196 0 CFG=1
M  V30 16 C  18.3117 37.8961 86.9947 0
M  V30 17 C  17.9773 36.5635 87.6433 0
M  V30 18 C  19.2676 35.8510 88.0816 0
M  V30 19 C  20.4103 35.7050 87.0717 0
M  V30 20 C  19.4466 38.9861 85.0536 0
M  V30 21 O  18.7712 39.1566 84.0434 0
M  V30 22 C  20.3459 40.0236 85.6164 0
M  V30 23 C  21.5604 40.3223 84.9901 0
M  V30 24 C  22.3503 41.3634 85.4753 0
M  V30 25 C  21.9177 42.1130 86.5719 0
M  V30 26 C  20.7271 41.7849 87.2198 0
M  V30 27 C  19.9316 40.7569 86.7317 0
M  V30 28 C  22.6750 43.3057 87.0242 0
M  V30 29 N  22.0842 44.4995 87.3556 0
M  V30 30 N  22.9524 45.4527 87.7103 0
M  V30 31 C  24.1366 44.8897 87.6142 0
M  V30 32 C  25.3801 45.6820 87.9382 0
M  V30 33 C  24.0264 43.5616 87.1811 0
M  V30 34 H  27.7878 38.3602 85.4794 0
M  V30 35 H  28.7588 37.6966 83.4258 0
M  V30 36 H  27.3319 38.5364 82.8615 0
M  V30 37 H  27.6281 35.4936 83.2809 0
M  V30 38 H  27.2446 36.3231 81.7593 0
M  V30 39 H  22.8594 35.0207 82.8733 0
M  V30 40 H  23.2468 37.0425 86.1787 0
M  V30 41 H  21.1895 37.7088 86.9274 0
M  V30 42 H  18.7891 36.9815 85.1269 0
M  V30 43 H  18.7363 38.5447 87.7602 0
M  V30 44 H  17.3725 38.3409 86.6548 0
M  V30 45 H  17.3822 35.9565 86.9651 0
M  V30 46 H  17.3401 36.7427 88.5114 0
M  V30 47 H  19.0370 34.8854 88.5337 0
M  V30 48 H  19.6827 36.4813 88.8489 0
M  V30 49 H  20.0837 34.8844 86.4436 0
M  V30 50 H  21.3034 35.4069 87.6258 0
M  V30 51 H  21.8854 39.7731 84.1165 0
M  V30 52 H  23.2708 41.6197 84.9707 0
M  V30 53 H  20.3715 42.3827 88.0467 0
M  V30 54 H  18.9646 40.5997 87.1887 0
M  V30 55 H  21.0855 44.6940 87.2426 0
M  V30 56 H  26.2844 45.0872 87.8100 0
M  V30 57 H  25.3740 46.0379 88.9688 0
M  V30 58 H  25.4789 46.5556 87.2934 0
M  V30 59 H  24.8377 42.8724 87.0030 0
M  V30 END ATOM
M  V30 BEGIN BOND
M  V30 1 2 1 2
M  V30 2 1 2 3
M  V30 3 1 2 7
M  V30 4 1 3 4
M  V30 5 1 3 34
M  V30 6 1 4 5
M  V30 7 1 4 35
M  V30 8 1 4 36
M  V30 9 1 5 6
M  V30 10 1 5 37
M  V30 11 1 5 38
M  V30 12 1 6 7
M  V30 13 1 6 8
M  V30 14 2 7 10
M  V30 15 2 8 9
M  V30 16 1 9 10
M  V30 17 1 9 39
M  V30 18 1 10 11
M  V30 19 1 11 12
M  V30 20 1 11 40
M  V30 21 2 12 13
M  V30 22 1 12 14
M  V30 23 1 14 15
M  V30 24 1 14 19
M  V30 25 1 14 41
M  V30 26 1 15 16
M  V30 27 1 15 20
M  V30 28 1 15 42
M  V30 29 1 16 17
M  V30 30 1 16 43
M  V30 31 1 16 44
M  V30 32 1 17 18
M  V30 33 1 17 45
M  V30 34 1 17 46
M  V30 35 1 18 19
M  V30 36 1 18 47
M  V30 37 1 18 48
M  V30 38 1 19 49
M  V30 39 1 19 50
M  V30 40 2 20 21
M  V30 41 1 20 22
M  V30 42 2 22 23
M  V30 43 1 22 27
M  V30 44 1 23 24
M  V30 45 1 23 51
M  V30 46 2 24 25
M  V30 47 1 24 52
M  V30 48 1 25 26
M  V30 49 1 25 28
M  V30 50 2 26 27
M  V30 51 1 26 53
M  V30 52 1 27 54
M  V30 53 1 28 29
M  V30 54 2 28 33
M  V30 55 1 29 30
M  V30 56 1 29 55
M  V30 57 2 30 31
M  V30 58 1 31 32
M  V30 59 1 31 33
M  V30 60 1 32 56
M  V30 61 1 32 57
M  V30 62 1 32 58
M  V30 63 1 33 59
M  V30 END BOND
M  V30 END CTAB
M  END
> <s_m_entry_id>
197

> <s_m_entry_name>
result.4485

> <s_m_Source_Path>
D:\OneDrive - zju.edu.cn\DOC\A-Finished\LCK_VS\Planet\LCK-8617

> <s_m_Source_File>
glide-dock_SP_top1262_2_pv.maegz

> <i_m_Source_File_Index>
197

> <PLANET_affinity>
8.016

> <i_lp_mmshare_version>
54117

> <i_f3d_flags>
0

> <s_epik_input>
W0NIMl0xW0NIMl1bTkhdQyg9TyljKG4xMiljKFtjSF1uMilbTkhdQyg9TylbQ0BIXTNbQ0BASF0oW0NIMl1bQ0gyXVtDSDJdW0NIMl0zKUMoPU8pYzRbY0hdW2NIXWMoW2NIXVtjSF00KS1jNW5bbkhdYyhbQ0gzXSlbY0hdNQ==

> <s_epik_cmdline>
J2VwaWtfcHl0aG9uJywgJy1waCcsICc3LjAnLCAnLXRuJywgJzgnLCAnLW1hJywgJzUwMCcsICctaW1hZScsICc8aW5maWxlLm1hZT4nLCAnLW9tYWUnLCAnPG91dGZpbGUubWFlPic=

> <r_epik_Ionization_Penalty>
  0.0002

> <r_epik_Ionization_Penalty_Charging>
  0.0000

> <r_epik_Ionization_Penalty_Neutral>
  0.0002

> <r_epik_State_Penalty>
  0.4107

> <r_epik_Charging_Adjusted_Penalty>
0.41068

> <i_epik_Tot_Q>
0

> <i_epik_Tot_abs_Q>
0

> <s_lp_Force_Field>
S-OPLS

> <r_lp_Energy>
45.2572

> <b_lp_Chiralities_Consistent>
1

> <s_lp_Variant>
O=C([C@H]1[C@H](C(C2=CC=C(C3=NNC(C)=C3)C=C2)=O)CCCC1)NC4=C(N(N=C4)CCN5)C5=O-2

> <s_i_glide_gridfile>
glide-grid_1

> <i_i_glide_lignum>
1282

> <i_i_glide_rotatable_bonds>
6

> <r_i_docking_score>
-8.60623609896189

> <r_i_glide_ligand_efficiency>
-0.260795033301875

> <r_i_glide_ligand_efficiency_sa>
-0.836509021433217

> <r_i_glide_ligand_efficiency_ln>
-1.91398234770344

> <r_i_glide_gscore>
-9.01693609896189

> <r_i_glide_lipo>
-2.68176664482531

> <r_i_glide_hbond>
-0.771207568729537

> <r_i_glide_metal>
0

> <r_i_glide_rewards>
-2.21517289506531

> <r_i_glide_evdw>
-44.440113067627

> <r_i_glide_ecoul>
-10.8613872528076

> <r_i_glide_erotb>
0.602424750960758

> <r_i_glide_esite>
-0.1

> <r_i_glide_emodel>
-74.1172001201602

> <r_i_glide_energy>
-55.3015003204346

> <r_i_glide_einternal>
20.0887107849121

> <i_i_glide_confnum>
107

> <i_i_glide_posenum>
343

> <r_i_glide_eff_state_penalty>
0.4107

> <r_lp_tautomer_probability>
0.49995

> <s_m_subgroup_title>
glide-dock_SP_top1262_2_pv

> <s_m_subgroupid>
glide-dock_SP_top1262_2_pv

> <b_m_subgroup_collapsed>
0

$$$$
FC(C=N1)=C(C2=CC(N(C(C)C)C(CO)=N3)=C3C(F)=C2)N=C1NC4=NC=C(C=C4)CN5CCNCC5.[H]Cl
                    3D
 Schrodinger Suite 2021-3.
  0  0  0     0  0            999 V3000
M  V30 BEGIN CTAB
M  V30 COUNTS 65 69 0 0 0
M  V30 BEGIN ATOM
M  V30 1 C  19.7601 39.4611 85.7807 0
M  V30 2 C  20.6760 40.6969 85.6816 0
M  V30 3 C  21.0956 41.0426 84.2421 0
M  V30 4 N  21.8608 40.5319 86.5317 0
M  V30 5 C  22.2113 41.3021 87.6323 0
M  V30 6 C  21.4113 42.5016 88.1260 0
M  V30 7 O  20.0836 42.1226 88.4477 0
M  V30 8 N  23.3508 40.9377 88.1723 0
M  V30 9 C  23.7999 39.9004 87.3991 0
M  V30 10 C  22.8819 39.6106 86.3662 0
M  V30 11 C  24.9862 39.1588 87.4960 0
M  V30 12 F  25.8907 39.4016 88.4733 0
M  V30 13 C  25.2301 38.1721 86.5396 0
M  V30 14 C  24.3158 37.8739 85.5200 0
M  V30 15 C  23.1152 38.5929 85.4342 0
M  V30 16 C  24.6159 36.8329 84.4892 0
M  V30 17 N  25.9122 36.7776 84.0622 0
M  V30 18 C  26.2098 35.9130 83.0565 0
M  V30 19 N  25.3095 35.1071 82.4440 0
M  V30 20 C  24.0290 35.1566 82.8897 0
M  V30 21 C  23.6350 35.9931 83.9304 0
M  V30 22 F  22.3497 35.9864 84.3623 0
M  V30 23 N  27.5222 35.7955 82.5785 0
M  V30 24 C  28.7433 36.3758 82.9487 0
M  V30 25 N  28.7927 37.3356 83.9134 0
M  V30 26 C  29.9951 37.8751 84.2324 0
M  V30 27 C  31.1919 37.4790 83.6257 0
M  V30 28 C  31.1288 36.4935 82.6331 0
M  V30 29 C  29.8967 35.9361 82.2912 0
M  V30 30 C  32.5249 38.1095 84.0020 0
M  V30 31 N  33.3041 37.2542 85.0300 0 CHG=1
M  V30 32 C  34.8399 37.4010 84.8766 0
M  V30 33 C  35.5208 36.4486 85.8897 0
M  V30 34 N  35.1330 36.7566 87.2708 0 CFG=1
M  V30 35 C  33.6826 36.6245 87.4244 0
M  V30 36 C  32.9332 37.6100 86.4912 0
M  V30 37 H  18.8515 39.5997 85.1937 0
M  V30 38 H  20.2426 38.5538 85.4179 0
M  V30 39 H  19.4519 39.2876 86.8123 0
M  V30 40 H  20.1072 41.5518 86.0435 0
M  V30 41 H  20.1988 41.1650 83.6437 0
M  V30 42 H  21.6620 41.9759 84.2031 0
M  V30 43 H  21.6948 40.2722 83.7588 0
M  V30 44 H  21.3916 43.2900 87.3702 0
M  V30 45 H  21.8597 42.9520 89.0149 0
M  V30 46 H  19.4868 42.8347 88.1665 0
M  V30 47 H  26.1594 37.6240 86.6013 0
M  V30 48 H  22.4101 38.3861 84.6441 0
M  V30 49 H  23.3083 34.5012 82.4186 0
M  V30 50 H  27.5997 35.1593 81.7969 0
M  V30 51 H  29.9803 38.6390 84.9976 0
M  V30 52 H  32.0249 36.1591 82.1280 0
M  V30 53 H  29.8493 35.1757 81.5213 0
M  V30 54 H  33.1552 38.1825 83.1135 0
M  V30 55 H  32.4208 39.1113 84.4272 0
M  V30 56 H  35.0908 37.1264 83.8504 0
M  V30 57 H  35.0958 38.4481 85.0466 0
M  V30 58 H  35.2927 35.4058 85.6552 0
M  V30 59 H  36.6081 36.5243 85.8135 0
M  V30 60 H  35.5878 36.0932 87.8893 0
M  V30 61 H  33.4234 36.8128 88.4681 0
M  V30 62 H  33.3829 35.5916 87.2335 0
M  V30 63 H  33.2328 38.6461 86.6680 0
M  V30 64 H  31.8465 37.5529 86.5857 0
M  V30 65 H  33.0740 36.2837 84.8772 0
M  V30 END ATOM
M  V30 BEGIN BOND
M  V30 1 1 1 2
M  V30 2 1 1 37
M  V30 3 1 1 38
M  V30 4 1 1 39
M  V30 5 1 2 3
M  V30 6 1 2 4
M  V30 7 1 2 40
M  V30 8 1 3 41
M  V30 9 1 3 42
M  V30 10 1 3 43
M  V30 11 1 4 5
M  V30 12 1 4 10
M  V30 13 1 5 6
M  V30 14 2 5 8
M  V30 15 1 6 7
M  V30 16 1 6 44
M  V30 17 1 6 45
M  V30 18 1 7 46
M  V30 19 1 8 9
M  V30 20 2 9 10
M  V30 21 1 9 11
M  V30 22 1 10 15
M  V30 23 1 11 12
M  V30 24 2 11 13
M  V30 25 1 13 14
M  V30 26 1 13 47
M  V30 27 2 14 15
M  V30 28 1 14 16
M  V30 29 1 15 48
M  V30 30 2 16 17
M  V30 31 1 16 21
M  V30 32 1 17 18
M  V30 33 2 18 19
M  V30 34 1 18 23
M  V30 35 1 19 20
M  V30 36 2 20 21
M  V30 37 1 20 49
M  V30 38 1 21 22
M  V30 39 1 23 24
M  V30 40 1 23 50
M  V30 41 2 24 25
M  V30 42 1 24 29
M  V30 43 1 25 26
M  V30 44 2 26 27
M  V30 45 1 26 51
M  V30 46 1 27 28
M  V30 47 1 27 30
M  V30 48 2 28 29
M  V30 49 1 28 52
M  V30 50 1 29 53
M  V30 51 1 30 31
M  V30 52 1 30 54
M  V30 53 1 30 55
M  V30 54 1 31 32
M  V30 55 1 31 36
M  V30 56 1 31 65
M  V30 57 1 32 33
M  V30 58 1 32 56
M  V30 59 1 32 57
M  V30 60 1 33 34
M  V30 61 1 33 58
M  V30 62 1 33 59
M  V30 63 1 34 35
M  V30 64 1 34 60
M  V30 65 1 35 36
M  V30 66 1 35 61
M  V30 67 1 35 62
M  V30 68 1 36 63
M  V30 69 1 36 64
M  V30 END BOND
M  V30 END CTAB
M  END
> <s_m_entry_id>
212

> <s_m_entry_name>
result.1999

> <s_m_Source_Path>
D:\OneDrive - zju.edu.cn\DOC\A-Finished\LCK_VS\Planet\LCK-8617

> <s_m_Source_File>
glide-dock_SP_top1262_2_pv.maegz

> <i_m_Source_File_Index>
212

> <PLANET_affinity>
8.338

> <i_lp_mmshare_version>
54117

> <i_f3d_flags>
0

> <s_epik_input>
W09IXVtDSDJdYyhuMSluKFtDSF0oW0NIM10pW0NIM10pYyhjMTIpW2NIXWMoW2NIXWMyRiktYzNuYyhuW2NIXWMzRilbTkhdYzRuW2NIXWMoW2NIXVtjSF00KVtDSDJdTjVbQ0gyXVtDSDJdW05IXVtDSDJdW0NIMl01

> <s_epik_cmdline>
J2VwaWtfcHl0aG9uJywgJy1waCcsICc3LjAnLCAnLXRuJywgJzgnLCAnLW1hJywgJzUwMCcsICctaW1hZScsICc8aW5maWxlLm1hZT4nLCAnLW9tYWUnLCAnPG91dGZpbGUubWFlPic=

> <r_epik_Ionization_Penalty>
  0.0619

> <r_epik_Ionization_Penalty_Charging>
  0.0300

> <r_epik_Ionization_Penalty_Neutral>
  0.0319

> <r_epik_State_Penalty>
  0.1678

> <r_epik_Charging_Adjusted_Penalty>
0.197756

> <i_epik_Tot_Q>
1

> <i_epik_Tot_abs_Q>
1

> <s_lp_Force_Field>
S-OPLS

> <r_lp_Energy>
61.4989

> <b_lp_Chiralities_Consistent>
1

> <s_lp_Variant>
FC(C=N1)=C(C2=CC(N(C(C)C)C(CO)=N3)=C3C(F)=C2)N=C1NC4=NC=C(C=C4)CN5CCNCC5.[H]Cl-1

> <s_i_glide_gridfile>
glide-grid_1

> <i_i_glide_lignum>
930

> <i_i_glide_rotatable_bonds>
8

> <r_i_docking_score>
-8.56665909425227

> <r_i_glide_ligand_efficiency>
-0.237962752618119

> <r_i_glide_ligand_efficiency_sa>
-0.785735696153171

> <r_i_glide_ligand_efficiency_ln>
-1.86901356998381

> <r_i_glide_gscore>
-8.73445909425227

> <r_i_glide_lipo>
-2.47187518663806

> <r_i_glide_hbond>
-0.638648255488896

> <r_i_glide_metal>
0

> <r_i_glide_rewards>
-1.84326798738569

> <r_i_glide_evdw>
-41.5911293029785

> <r_i_glide_ecoul>
-13.3414993286133

> <r_i_glide_erotb>
0.348669190457971

> <r_i_glide_esite>
-0.048555490756673

> <r_i_glide_emodel>
-88.6694532686662

> <r_i_glide_energy>
-54.9326286315918

> <r_i_glide_einternal>
3.87768006324768

> <i_i_glide_confnum>
77

> <i_i_glide_posenum>
256

> <r_i_glide_eff_state_penalty>
0.1678

> <s_m_subgroup_title>
glide-dock_SP_top1262_2_pv

> <s_m_subgroupid>
glide-dock_SP_top1262_2_pv

> <b_m_subgroup_collapsed>
0

$$$$
O=C(N)C1=CC(NC2=O)=C(/C2=C(C3=CC=CC=C3)/NC4=CC=CC(CN(C)C)=C4)C=C1
                    3D
 Schrodinger Suite 2021-3.
  0  0  0     0  0            999 V3000
M  V30 BEGIN CTAB
M  V30 COUNTS 56 59 0 0 0
M  V30 BEGIN ATOM
M  V30 1 O  18.2904 37.7977 84.5792 0
M  V30 2 C  19.1819 38.2637 85.2856 0
M  V30 3 N  18.8943 39.1213 86.2675 0
M  V30 4 C  20.6347 37.8795 85.0823 0
M  V30 5 C  20.9592 36.7655 84.2887 0
M  V30 6 C  21.6904 38.6367 85.6269 0
M  V30 7 C  23.0241 38.3108 85.3607 0
M  V30 8 C  23.3274 37.2164 84.5433 0
M  V30 9 C  22.2963 36.4531 84.0431 0
M  V30 10 C  24.5786 36.6869 83.9647 0
M  V30 11 C  24.1644 35.5547 83.1356 0
M  V30 12 O  24.8595 34.8023 82.4476 0
M  V30 13 N  22.8290 35.4733 83.2411 0
M  V30 14 C  25.8766 37.1071 84.0485 0
M  V30 15 C  26.2244 38.2646 84.8985 0
M  V30 16 C  26.3061 38.1134 86.2869 0
M  V30 17 C  26.6539 39.1968 87.0882 0
M  V30 18 C  26.9122 40.4335 86.5015 0
M  V30 19 C  26.8250 40.5972 85.1199 0
M  V30 20 C  26.4826 39.5123 84.3176 0
M  V30 21 N  26.9351 36.5098 83.3558 0
M  V30 22 C  28.3406 36.6557 83.3224 0
M  V30 23 C  29.0225 35.8069 82.4436 0
M  V30 24 C  30.4102 35.8554 82.3247 0
M  V30 25 C  31.1436 36.7658 83.0805 0
M  V30 26 C  30.4889 37.6193 83.9699 0
M  V30 27 C  29.0994 37.5440 84.1030 0
M  V30 28 C  31.2775 38.6168 84.8046 0
M  V30 29 N  31.1889 40.0663 84.2705 0 CHG=1
M  V30 30 C  31.7676 41.0902 85.2711 0
M  V30 31 C  31.8336 40.2329 82.8760 0
M  V30 32 H  17.9331 39.3858 86.4401 0
M  V30 33 H  19.6225 39.5098 86.8436 0
M  V30 34 H  20.1749 36.1891 83.8218 0
M  V30 35 H  21.4983 39.5131 86.2289 0
M  V30 36 H  23.7950 38.9507 85.7610 0
M  V30 37 H  22.2925 34.7675 82.7530 0
M  V30 38 H  26.1005 37.1565 86.7451 0
M  V30 39 H  26.7228 39.0791 88.1598 0
M  V30 40 H  27.1785 41.2769 87.1222 0
M  V30 41 H  27.0225 41.5626 84.6757 0
M  V30 42 H  26.4273 39.6333 83.2451 0
M  V30 43 H  26.6362 35.7703 82.7307 0
M  V30 44 H  28.4838 35.0877 81.8440 0
M  V30 45 H  30.9130 35.1836 81.6434 0
M  V30 46 H  32.2179 36.7991 82.9737 0
M  V30 47 H  28.6512 38.1895 84.8341 0
M  V30 48 H  32.3419 38.3747 84.8474 0
M  V30 49 H  30.8921 38.6480 85.8265 0
M  V30 50 H  32.8302 40.8747 85.4022 0
M  V30 51 H  31.2170 40.9846 86.2087 0
M  V30 52 H  31.6133 42.0840 84.8457 0
M  V30 53 H  32.8960 39.9984 82.9641 0
M  V30 54 H  31.3333 39.5505 82.1879 0
M  V30 55 H  31.6811 41.2667 82.5606 0
M  V30 56 H  30.2035 40.2755 84.1687 0
M  V30 END ATOM
M  V30 BEGIN BOND
M  V30 1 2 1 2
M  V30 2 1 2 3
M  V30 3 1 2 4
M  V30 4 1 3 32
M  V30 5 1 3 33
M  V30 6 2 4 5
M  V30 7 1 4 6
M  V30 8 1 5 9
M  V30 9 1 5 34
M  V30 10 2 6 7
M  V30 11 1 6 35
M  V30 12 1 7 8
M  V30 13 1 7 36
M  V30 14 2 8 9
M  V30 15 1 8 10
M  V30 16 1 9 13
M  V30 17 1 10 11
M  V30 18 2 10 14
M  V30 19 2 11 12
M  V30 20 1 11 13
M  V30 21 1 13 37
M  V30 22 1 14 15
M  V30 23 1 14 21
M  V30 24 2 15 16
M  V30 25 1 15 20
M  V30 26 1 16 17
M  V30 27 1 16 38
M  V30 28 2 17 18
M  V30 29 1 17 39
M  V30 30 1 18 19
M  V30 31 1 18 40
M  V30 32 2 19 20
M  V30 33 1 19 41
M  V30 34 1 20 42
M  V30 35 1 21 22
M  V30 36 1 21 43
M  V30 37 2 22 23
M  V30 38 1 22 27
M  V30 39 1 23 24
M  V30 40 1 23 44
M  V30 41 2 24 25
M  V30 42 1 24 45
M  V30 43 1 25 26
M  V30 44 1 25 46
M  V30 45 2 26 27
M  V30 46 1 26 28
M  V30 47 1 27 47
M  V30 48 1 28 29
M  V30 49 1 28 48
M  V30 50 1 28 49
M  V30 51 1 29 30
M  V30 52 1 29 31
M  V30 53 1 29 56
M  V30 54 1 30 50
M  V30 55 1 30 51
M  V30 56 1 30 52
M  V30 57 1 31 53
M  V30 58 1 31 54
M  V30 59 1 31 55
M  V30 END BOND
M  V30 END CTAB
M  END
> <s_m_entry_id>
213

> <s_m_entry_name>
result.3954

> <s_m_Source_Path>
D:\OneDrive - zju.edu.cn\DOC\A-Finished\LCK_VS\Planet\LCK-8617

> <s_m_Source_File>
glide-dock_SP_top1262_2_pv.maegz

> <i_m_Source_File_Index>
213

> <PLANET_affinity>
7.612

> <i_lp_mmshare_version>
54117

> <i_f3d_flags>
0

> <s_epik_input>
Tz1DKFtOSDJdKWMoW2NIXVtjSF0xKVtjSF1jKGMxMilbTkhdQyg9TylDXDI9QyhcYzNbY0hdW2NIXVtjSF1bY0hdW2NIXTMpW05IXWM0W2NIXVtjSF1bY0hdYyhbY0hdNClbQ0gyXU4oW0NIM10pW0NIM10=

> <s_epik_cmdline>
J2VwaWtfcHl0aG9uJywgJy1waCcsICc3LjAnLCAnLXRuJywgJzgnLCAnLW1hJywgJzUwMCcsICctaW1hZScsICc8aW5maWxlLm1hZT4nLCAnLW9tYWUnLCAnPG91dGZpbGUubWFlPic=

> <r_epik_Ionization_Penalty>
  0.0515

> <r_epik_Ionization_Penalty_Charging>
  0.0513

> <r_epik_Ionization_Penalty_Neutral>
  0.0002

> <r_epik_State_Penalty>
  0.4546

> <r_epik_Charging_Adjusted_Penalty>
0.50597

> <i_epik_Tot_Q>
1

> <i_epik_Tot_abs_Q>
1

> <s_lp_Force_Field>
S-OPLS

> <r_lp_Energy>
57.5891

> <b_lp_Chiralities_Consistent>
1

> <s_lp_Variant>
O=C(N)C1=CC(NC2=O)=C(/C2=C(C3=CC=CC=C3)/NC4=CC=CC(CN(C)C)=C4)C=C1-1

> <s_i_glide_gridfile>
glide-grid_1

> <i_i_glide_lignum>
1786

> <i_i_glide_rotatable_bonds>
6

> <r_i_docking_score>
-8.56247889240021

> <r_i_glide_ligand_efficiency>
-0.276208996529039

> <r_i_glide_ligand_efficiency_sa>
-0.867677596719566

> <r_i_glide_ligand_efficiency_ln>
-1.93110139870023

> <r_i_glide_gscore>
-9.0170788924002

> <r_i_glide_lipo>
-2.9769126488372

> <r_i_glide_hbond>
-0.532471750319876

> <r_i_glide_metal>
0

> <r_i_glide_rewards>
-2.11856033748169

> <r_i_glide_evdw>
-43.1446952819824

> <r_i_glide_ecoul>
-10.1216802597046

> <r_i_glide_erotb>
0.323090419932368

> <r_i_glide_esite>
-0.0367377726389939

> <r_i_glide_emodel>
-83.5147744619159

> <r_i_glide_energy>
-53.266375541687

> <r_i_glide_einternal>
6.30174350738525

> <i_i_glide_confnum>
38

> <i_i_glide_posenum>
44

> <r_i_glide_eff_state_penalty>
0.4546

> <r_lp_tautomer_probability>
0.5

> <s_m_subgroup_title>
glide-dock_SP_top1262_2_pv

> <s_m_subgroupid>
glide-dock_SP_top1262_2_pv

> <b_m_subgroup_collapsed>
0

$$$$
O=C1N(C2CCCC2)C3=NC(NC4=CC=C(N(CC5)CCN5CCCCNC(COC6=C(C(N7C(CCC8=O)C(N8)=O)=O)...
                    3D
 Schrodinger Suite 2021-3.
  0  0  0     0  0            999 V3000
M  V30 BEGIN CTAB
M  V30 COUNTS 110 117 0 0 0
M  V30 BEGIN ATOM
M  V30 1 C  26.4841 38.3514 87.1272 0
M  V30 2 C  27.5152 39.4838 87.2904 0
M  V30 3 C  27.0309 40.6586 86.4198 0
M  V30 4 C  25.9481 40.0914 85.4952 0
M  V30 5 C  25.3180 38.9625 86.3290 0
M  V30 6 N  24.4201 38.0134 85.5890 0
M  V30 7 C  23.1032 38.0007 86.0066 0
M  V30 8 O  22.6938 38.6575 86.9714 0
M  V30 9 C  22.1845 37.1721 85.2081 0
M  V30 10 C  20.7585 37.1915 85.5535 0
M  V30 11 O  20.2469 36.3543 86.2953 0
M  V30 12 C  19.8941 38.3099 84.9700 0
M  V30 13 C  22.5936 36.3984 84.1573 0
M  V30 14 C  21.6847 35.5586 83.2460 0
M  V30 15 C  24.0330 36.3555 83.8240 0
M  V30 16 C  24.9249 37.1880 84.5271 0
M  V30 17 C  24.5749 35.5496 82.8125 0
M  V30 18 N  25.8929 35.5481 82.4971 0
M  V30 19 C  26.6641 36.3949 83.2127 0
M  V30 20 N  26.2549 37.2162 84.2141 0
M  V30 21 N  28.0358 36.3372 82.8454 0
M  V30 22 C  29.1296 37.1139 83.3296 0
M  V30 23 C  30.4421 36.7460 83.0160 0
M  V30 24 C  31.5084 37.5343 83.4654 0
M  V30 25 C  31.2694 38.7079 84.2020 0
M  V30 26 C  29.9343 39.0392 84.4731 0
M  V30 27 N  28.9348 38.2378 84.0483 0 CHG=1
M  V30 28 N  32.3215 39.5188 84.6165 0
M  V30 29 C  33.5306 38.9529 85.2437 0
M  V30 30 C  33.4999 39.0740 86.7902 0
M  V30 31 N  33.3996 40.4816 87.1894 0
M  V30 32 C  32.1509 41.0189 86.6383 0
M  V30 33 C  32.1610 40.9045 85.0956 0
M  V30 34 C  33.4681 40.6090 88.6515 0
M  V30 35 C  33.6516 42.0729 89.1294 0
M  V30 36 C  32.3699 42.7631 89.6415 0
M  V30 37 C  31.8747 42.2221 90.9988 0
M  V30 38 N  30.6840 42.9044 91.5038 0
M  V30 39 C  29.4439 42.7575 91.0061 0
M  V30 40 O  29.1756 41.9790 90.0876 0
M  V30 41 C  28.3683 43.6543 91.6377 0
M  V30 42 O  27.1431 43.5772 90.9059 0
M  V30 43 C  26.1688 42.6515 91.2386 0
M  V30 44 C  26.2735 41.6773 92.2483 0
M  V30 45 C  25.1929 40.8343 92.5357 0
M  V30 46 C  23.9985 40.9489 91.8131 0
M  V30 47 C  23.9162 41.9030 90.8007 0
M  V30 48 C  24.9723 42.7279 90.5204 0
M  V30 49 C  22.7977 42.2554 89.8826 0
M  V30 50 O  21.6834 41.7308 89.8351 0
M  V30 51 N  23.2638 43.2843 89.1222 0
M  V30 52 C  24.5529 43.6272 89.4113 0
M  V30 53 O  25.2224 44.5073 88.8701 0
M  V30 54 C  22.4320 43.9932 88.1125 0 CFG=2
M  V30 55 C  22.7843 43.8385 86.6129 0
M  V30 56 C  23.6951 44.9476 86.0426 0
M  V30 57 C  23.2807 46.3584 86.5143 0
M  V30 58 O  23.6523 47.3880 85.9543 0
M  V30 59 N  22.5008 46.4077 87.6181 0
M  V30 60 C  22.1570 45.4694 88.5276 0
M  V30 61 O  21.7415 45.7910 89.6384 0
M  V30 62 H  26.9403 37.5102 86.6146 0
M  V30 63 H  26.1315 37.9527 88.0769 0
M  V30 64 H  28.5133 39.1545 86.9957 0
M  V30 65 H  27.5909 39.7856 88.3365 0
M  V30 66 H  27.8389 41.1353 85.8691 0
M  V30 67 H  26.5953 41.4252 87.0609 0
M  V30 68 H  25.2053 40.8323 85.2001 0
M  V30 69 H  26.3839 39.7336 84.5651 0
M  V30 70 H  24.7668 39.5234 87.0894 0
M  V30 71 H  19.8758 38.2480 83.8831 0
M  V30 72 H  18.8714 38.2408 85.3438 0
M  V30 73 H  20.2971 39.2804 85.2585 0
M  V30 74 H  21.7283 35.9127 82.2216 0
M  V30 75 H  21.9822 34.5095 83.2462 0
M  V30 76 H  20.6314 35.6040 83.5058 0
M  V30 77 H  23.9661 34.8833 82.2202 0
M  V30 78 H  28.2559 35.6226 82.1658 0
M  V30 79 H  30.6523 35.8595 82.4299 0
M  V30 80 H  32.5164 37.2480 83.2048 0
M  V30 81 H  29.6287 39.9149 85.0273 0
M  V30 82 H  33.6502 37.9005 84.9957 0
M  V30 83 H  34.4119 39.4603 84.8501 0
M  V30 84 H  32.6748 38.4886 87.2018 0
M  V30 85 H  34.4189 38.6425 87.1937 0
M  V30 86 H  32.0572 42.0735 86.8939 0
M  V30 87 H  31.2829 40.5085 87.0630 0
M  V30 88 H  32.9770 41.5072 84.6900 0
M  V30 89 H  31.2548 41.3566 84.6875 0
M  V30 90 H  32.5797 40.1580 89.0964 0
M  V30 91 H  34.3179 40.0287 89.0180 0
M  V30 92 H  34.4428 42.1279 89.8770 0
M  V30 93 H  34.0021 42.6781 88.2915 0
M  V30 94 H  32.5674 43.8325 89.7430 0
M  V30 95 H  31.5758 42.6747 88.9010 0
M  V30 96 H  31.6894 41.1540 90.9321 0
M  V30 97 H  32.6713 42.3165 91.7397 0
M  V30 98 H  30.8240 43.5563 92.2602 0
M  V30 99 H  28.2470 43.4509 92.7004 0
M  V30 100 H  28.7061 44.6883 91.5666 0
M  V30 101 H  27.1778 41.5681 92.8237 0
M  V30 102 H  25.2756 40.0991 93.3251 0
M  V30 103 H  23.1628 40.3043 92.0438 0
M  V30 104 H  21.4317 43.5656 88.2021 0
M  V30 105 H  23.2474 42.8669 86.4376 0
M  V30 106 H  21.8599 43.8244 86.0324 0
M  V30 107 H  23.6853 44.9221 84.9504 0
M  V30 108 H  24.7299 44.7939 86.3483 0
M  V30 109 H  22.2787 47.3467 87.9065 0
M  V30 110 H  27.9778 38.4806 84.2728 0
M  V30 END ATOM
M  V30 BEGIN BOND
M  V30 1 1 1 2
M  V30 2 1 1 5
M  V30 3 1 1 62
M  V30 4 1 1 63
M  V30 5 1 2 3
M  V30 6 1 2 64
M  V30 7 1 2 65
M  V30 8 1 3 4
M  V30 9 1 3 66
M  V30 10 1 3 67
M  V30 11 1 4 5
M  V30 12 1 4 68
M  V30 13 1 4 69
M  V30 14 1 5 6
M  V30 15 1 5 70
M  V30 16 1 6 7
M  V30 17 1 6 16
M  V30 18 2 7 8
M  V30 19 1 7 9
M  V30 20 1 9 10
M  V30 21 2 9 13
M  V30 22 2 10 11
M  V30 23 1 10 12
M  V30 24 1 12 71
M  V30 25 1 12 72
M  V30 26 1 12 73
M  V30 27 1 13 14
M  V30 28 1 13 15
M  V30 29 1 14 74
M  V30 30 1 14 75
M  V30 31 1 14 76
M  V30 32 2 15 16
M  V30 33 1 15 17
M  V30 34 1 16 20
M  V30 35 2 17 18
M  V30 36 1 17 77
M  V30 37 1 18 19
M  V30 38 2 19 20
M  V30 39 1 19 21
M  V30 40 1 21 22
M  V30 41 1 21 78
M  V30 42 2 22 23
M  V30 43 1 22 27
M  V30 44 1 23 24
M  V30 45 1 23 79
M  V30 46 2 24 25
M  V30 47 1 24 80
M  V30 48 1 25 26
M  V30 49 1 25 28
M  V30 50 2 26 27
M  V30 51 1 26 81
M  V30 52 1 27 110
M  V30 53 1 28 29
M  V30 54 1 28 33
M  V30 55 1 29 30
M  V30 56 1 29 82
M  V30 57 1 29 83
M  V30 58 1 30 31
M  V30 59 1 30 84
M  V30 60 1 30 85
M  V30 61 1 31 32
M  V30 62 1 31 34
M  V30 63 1 32 33
M  V30 64 1 32 86
M  V30 65 1 32 87
M  V30 66 1 33 88
M  V30 67 1 33 89
M  V30 68 1 34 35
M  V30 69 1 34 90
M  V30 70 1 34 91
M  V30 71 1 35 36
M  V30 72 1 35 92
M  V30 73 1 35 93
M  V30 74 1 36 37
M  V30 75 1 36 94
M  V30 76 1 36 95
M  V30 77 1 37 38
M  V30 78 1 37 96
M  V30 79 1 37 97
M  V30 80 1 38 39
M  V30 81 1 38 98
M  V30 82 2 39 40
M  V30 83 1 39 41
M  V30 84 1 41 42
M  V30 85 1 41 99
M  V30 86 1 41 100
M  V30 87 1 42 43
M  V30 88 2 43 44
M  V30 89 1 43 48
M  V30 90 1 44 45
M  V30 91 1 44 101
M  V30 92 2 45 46
M  V30 93 1 45 102
M  V30 94 1 46 47
M  V30 95 1 46 103
M  V30 96 2 47 48
M  V30 97 1 47 49
M  V30 98 1 48 52
M  V30 99 2 49 50
M  V30 100 1 49 51
M  V30 101 1 51 52
M  V30 102 1 51 54
M  V30 103 2 52 53
M  V30 104 1 54 55
M  V30 105 1 54 60
M  V30 106 1 54 104
M  V30 107 1 55 56
M  V30 108 1 55 105
M  V30 109 1 55 106
M  V30 110 1 56 57
M  V30 111 1 56 107
M  V30 112 1 56 108
M  V30 113 2 57 58
M  V30 114 1 57 59
M  V30 115 1 59 60
M  V30 116 1 59 109
M  V30 117 2 60 61
M  V30 END BOND
M  V30 END CTAB
M  END
> <s_m_entry_id>
216

> <s_m_entry_name>
result.4176

> <s_m_Source_Path>
D:\OneDrive - zju.edu.cn\DOC\A-Finished\LCK_VS\Planet\LCK-8617

> <s_m_Source_File>
glide-dock_SP_top1262_2_pv.maegz

> <i_m_Source_File_Index>
216

> <PLANET_affinity>
12.208

> <i_lp_mmshare_version>
54117

> <i_f3d_flags>
0

> <s_epik_input>
W0NIMl0xW0NIMl1bQ0gyXVtDSDJdW0NIXTFuKGMoPU8pYyhDKD1PKVtDSDNdKWMyW0NIM10pYyhjMjMpbmMobltjSF0zKVtOSF1jNFtjSF1bY0hdYyhbY0hdbjQpTjVbQ0gyXVtDSDJdTihbQ0gyXVtDSDJdNSlbQ0gyXVtDSDJdW0NIMl1bQ0gyXVtOSF1DKD1PKVtDSDJdT2MoW2NIXVtjSF1bY0hdNiljKGM2NylDKD1PKU4oQzc9TylbQ0BASF04W0NIMl1bQ0gyXUMoPU8pW05IXUM4PU8=

> <s_epik_cmdline>
J2VwaWtfcHl0aG9uJywgJy1waCcsICc3LjAnLCAnLXRuJywgJzgnLCAnLW1hJywgJzUwMCcsICctaW1hZScsICc8aW5maWxlLm1hZT4nLCAnLW9tYWUnLCAnPG91dGZpbGUubWFlPic=

> <r_epik_Ionization_Penalty>
  0.4320

> <r_epik_Ionization_Penalty_Charging>
  0.0575

> <r_epik_Ionization_Penalty_Neutral>
  0.3745

> <r_epik_State_Penalty>
  0.5219

> <r_epik_Charging_Adjusted_Penalty>
0.579458

> <i_epik_Tot_Q>
1

> <i_epik_Tot_abs_Q>
1

> <s_epik_Chemistry_Notes>
This compound has an imine and may undergo hydrolysis.

> <s_lp_Force_Field>
S-OPLS

> <r_lp_Energy>
115.726

> <b_lp_Chiralities_Consistent>
1

> <s_lp_Variant>
O=C1N(C2CCCC2)C3=NC(NC4=CC=C(N(CC5)CCN5CCCCNC(COC6=C(C(N7C(CCC8=O)C(N8)=O)=O)...-1

> <s_i_glide_gridfile>
glide-grid_1

> <i_i_glide_lignum>
115

> <i_i_glide_rotatable_bonds>
15

> <r_i_docking_score>
-8.56077568750507

> <r_i_glide_ligand_efficiency>
-0.140340585041067

> <r_i_glide_ligand_efficiency_sa>
-0.552450316932052

> <r_i_glide_ligand_efficiency_ln>
-1.67501212415262

> <r_i_glide_gscore>
-9.08267568750507

> <r_i_glide_lipo>
-3.03396603214225

> <r_i_glide_hbond>
-0.0288931726568762

> <r_i_glide_metal>
0

> <r_i_glide_rewards>
-1.9174633684244

> <r_i_glide_evdw>
-58.6791343688965

> <r_i_glide_ecoul>
-8.02384281158447

> <r_i_glide_erotb>
0.230333328965542

> <r_i_glide_esite>
-0.195153303064586

> <r_i_glide_emodel>
-102.942614101185

> <r_i_glide_energy>
-66.702977180481

> <r_i_glide_einternal>
9.67640590667725

> <i_i_glide_confnum>
597

> <i_i_glide_posenum>
78

> <r_i_glide_eff_state_penalty>
0.5219

> <r_lp_tautomer_probability>
0.999894

> <s_m_subgroup_title>
glide-dock_SP_top1262_2_pv

> <s_m_subgroupid>
glide-dock_SP_top1262_2_pv

> <b_m_subgroup_collapsed>
0

$$$$
C12=C(C3=C4N=CC(C5=CC=C(N6CCNCC6)C=C5)=CN4N=C3)C=CC=C1N=CC=C2
                    3D
 Schrodinger Suite 2021-3.
  0  0  0     0  0            999 V3000
M  V30 BEGIN CTAB
M  V30 COUNTS 54 59 0 0 0
M  V30 BEGIN ATOM
M  V30 1 C  19.7958 37.7672 84.0384 0
M  V30 2 C  18.5395 38.3563 83.9119 0
M  V30 3 C  17.6867 38.3642 85.0101 0
M  V30 4 N  17.9951 37.7933 86.1965 0
M  V30 5 C  19.1936 37.1567 86.3106 0
M  V30 6 C  20.1543 37.1190 85.2464 0
M  V30 7 C  19.4421 36.4286 87.4947 0
M  V30 8 C  20.6137 35.6925 87.6116 0
M  V30 9 C  21.5866 35.7327 86.6305 0
M  V30 10 C  21.3822 36.4054 85.4303 0
M  V30 11 C  22.4278 36.1842 84.3861 0
M  V30 12 C  22.2724 35.5565 83.1458 0
M  V30 13 N  23.3804 35.4191 82.4466 0
M  V30 14 N  24.3328 35.9566 83.2250 0
M  V30 15 C  23.8250 36.4564 84.4352 0
M  V30 16 C  25.6539 36.0680 82.8918 0
M  V30 17 C  26.5179 36.6883 83.7977 0
M  V30 18 C  25.9500 37.1562 84.9944 0
M  V30 19 N  24.6340 37.0415 85.3293 0
M  V30 20 C  27.9734 36.8246 83.4975 0
M  V30 21 C  28.6988 37.9340 83.9395 0
M  V30 22 C  30.0530 38.0594 83.6449 0
M  V30 23 C  30.7153 37.0857 82.8892 0
M  V30 24 C  29.9923 35.9682 82.4520 0
M  V30 25 C  28.6427 35.8415 82.7604 0
M  V30 26 N  32.0610 37.2427 82.5737 0
M  V30 27 C  32.6822 38.5366 82.2377 0
M  V30 28 C  33.2699 38.5820 80.8095 0
M  V30 29 N  34.2946 37.4463 80.6403 0 CHG=1
M  V30 30 C  33.6116 36.1008 80.9412 0
M  V30 31 C  33.0144 36.1388 82.3673 0
M  V30 32 H  20.4828 37.7662 83.2095 0
M  V30 33 H  18.2363 38.7962 82.9742 0
M  V30 34 H  16.7120 38.8283 84.9519 0
M  V30 35 H  18.6937 36.3985 88.2743 0
M  V30 36 H  20.7763 35.0410 88.4436 0
M  V30 37 H  22.4825 35.1567 86.7844 0
M  V30 38 H  21.3427 35.1577 82.7655 0
M  V30 39 H  25.9546 35.6822 81.9278 0
M  V30 40 H  26.5666 37.6265 85.7465 0
M  V30 41 H  28.2177 38.7142 84.5111 0
M  V30 42 H  30.5847 38.9240 84.0147 0
M  V30 43 H  30.4594 35.1982 81.8548 0
M  V30 44 H  28.1184 34.9650 82.4066 0
M  V30 45 H  31.9407 39.3333 82.3045 0
M  V30 46 H  33.4300 38.7858 82.9932 0
M  V30 47 H  33.8053 39.5134 80.6086 0
M  V30 48 H  32.5008 38.4427 80.0449 0
M  V30 49 H  35.0627 37.5834 81.2859 0
M  V30 50 H  34.3813 35.3324 80.8340 0
M  V30 51 H  32.8593 35.9561 80.1637 0
M  V30 52 H  33.7982 36.2043 83.1241 0
M  V30 53 H  32.5296 35.1821 82.5696 0
M  V30 54 H  34.6760 37.4461 79.7029 0
M  V30 END ATOM
M  V30 BEGIN BOND
M  V30 1 2 1 2
M  V30 2 1 1 6
M  V30 3 1 1 32
M  V30 4 1 2 3
M  V30 5 1 2 33
M  V30 6 2 3 4
M  V30 7 1 3 34
M  V30 8 1 4 5
M  V30 9 2 5 6
M  V30 10 1 5 7
M  V30 11 1 6 10
M  V30 12 2 7 8
M  V30 13 1 7 35
M  V30 14 1 8 9
M  V30 15 1 8 36
M  V30 16 2 9 10
M  V30 17 1 9 37
M  V30 18 1 10 11
M  V30 19 1 11 12
M  V30 20 2 11 15
M  V30 21 2 12 13
M  V30 22 1 12 38
M  V30 23 1 13 14
M  V30 24 1 14 15
M  V30 25 1 14 16
M  V30 26 1 15 19
M  V30 27 2 16 17
M  V30 28 1 16 39
M  V30 29 1 17 18
M  V30 30 1 17 20
M  V30 31 2 18 19
M  V30 32 1 18 40
M  V30 33 2 20 21
M  V30 34 1 20 25
M  V30 35 1 21 22
M  V30 36 1 21 41
M  V30 37 2 22 23
M  V30 38 1 22 42
M  V30 39 1 23 24
M  V30 40 1 23 26
M  V30 41 2 24 25
M  V30 42 1 24 43
M  V30 43 1 25 44
M  V30 44 1 26 27
M  V30 45 1 26 31
M  V30 46 1 27 28
M  V30 47 1 27 45
M  V30 48 1 27 46
M  V30 49 1 28 29
M  V30 50 1 28 47
M  V30 51 1 28 48
M  V30 52 1 29 30
M  V30 53 1 29 49
M  V30 54 1 29 54
M  V30 55 1 30 31
M  V30 56 1 30 50
M  V30 57 1 30 51
M  V30 58 1 31 52
M  V30 59 1 31 53
M  V30 END BOND
M  V30 END CTAB
M  END
> <s_m_entry_id>
217

> <s_m_entry_name>
result.2686

> <s_m_Source_Path>
D:\OneDrive - zju.edu.cn\DOC\A-Finished\LCK_VS\Planet\LCK-8617

> <s_m_Source_File>
glide-dock_SP_top1262_2_pv.maegz

> <i_m_Source_File_Index>
217

> <PLANET_affinity>
7.266

> <i_lp_mmshare_version>
54117

> <i_f3d_flags>
0

> <s_epik_input>
bjFbY0hdW2NIXVtjSF1jKGMxMiljKFtjSF1bY0hdW2NIXTIpLWMoW2NIXW4zKWMobjM0KW5bY0hdYyhbY0hdNCktYzVbY0hdW2NIXWMoW2NIXVtjSF01KU42W0NIMl1bQ0gyXVtOSF1bQ0gyXVtDSDJdNg==

> <s_epik_cmdline>
J2VwaWtfcHl0aG9uJywgJy1waCcsICc3LjAnLCAnLXRuJywgJzgnLCAnLW1hJywgJzUwMCcsICctaW1hZScsICc8aW5maWxlLm1hZT4nLCAnLW9tYWUnLCAnPG91dGZpbGUubWFlPic=

> <r_epik_Ionization_Penalty>
  0.0129

> <r_epik_Ionization_Penalty_Charging>
  0.0086

> <r_epik_Ionization_Penalty_Neutral>
  0.0043

> <r_epik_State_Penalty>
  0.0065

> <r_epik_Charging_Adjusted_Penalty>
0.0150378

> <i_epik_Tot_Q>
1

> <i_epik_Tot_abs_Q>
1

> <s_lp_Force_Field>
S-OPLS

> <r_lp_Energy>
65.8864

> <b_lp_Chiralities_Consistent>
1

> <s_lp_Variant>
C12=C(C3=C4N=CC(C5=CC=C(N6CCNCC6)C=C5)=CN4N=C3)C=CC=C1N=CC=C2-1

> <s_i_glide_gridfile>
glide-grid_1

> <i_i_glide_lignum>
2289

> <i_i_glide_rotatable_bonds>
3

> <r_i_docking_score>
-8.55911443463324

> <r_i_glide_ligand_efficiency>
-0.27610046563333

> <r_i_glide_ligand_efficiency_sa>
-0.867336659863991

> <r_i_glide_ligand_efficiency_ln>
-1.93034261036554

> <r_i_glide_gscore>
-8.56561443463324

> <r_i_glide_lipo>
-4.35769870807483

> <r_i_glide_hbond>
0

> <r_i_glide_metal>
0

> <r_i_glide_rewards>
-1.53742367590161

> <r_i_glide_evdw>
-49.4009284973145

> <r_i_glide_ecoul>
-3.70577311515808

> <r_i_glide_erotb>
0.355420341482643

> <r_i_glide_esite>
0

> <r_i_glide_emodel>
-83.3102380756956

> <r_i_glide_energy>
-53.1067016124725

> <r_i_glide_einternal>
0.739388346672058

> <i_i_glide_confnum>
31

> <i_i_glide_posenum>
200

> <r_i_glide_eff_state_penalty>
0.0065

> <s_m_subgroup_title>
glide-dock_SP_top1262_2_pv

> <s_m_subgroupid>
glide-dock_SP_top1262_2_pv

> <b_m_subgroup_collapsed>
0

$$$$
O=C(C(C1=C2C=CC=CC2=NC(N3CCN(C)CC3)=N1)=C4C5=CNC6=C5C=CC=C6)NC4=O
                    3D
 Schrodinger Suite 2021-3.
  0  0  0     0  0            999 V3000
M  V30 BEGIN CTAB
M  V30 COUNTS 56 61 0 0 0
M  V30 BEGIN ATOM
M  V30 1 C  29.5727 38.3593 84.8434 0
M  V30 2 C  30.2690 37.8089 83.7703 0
M  V30 3 C  29.6488 36.9775 82.8480 0
M  V30 4 C  28.2912 36.6787 82.9477 0
M  V30 5 C  27.5351 37.1747 84.0302 0
M  V30 6 C  28.2202 38.0195 84.9655 0
M  V30 7 C  26.1531 37.0634 84.4900 0
M  V30 8 C  26.1179 37.7530 85.6919 0
M  V30 9 N  27.3140 38.3588 85.9413 0
M  V30 10 C  24.9721 36.3730 83.9261 0
M  V30 11 C  25.0363 35.3175 82.9444 0
M  V30 12 O  25.9998 34.7497 82.4441 0
M  V30 13 N  23.7699 35.0329 82.6444 0
M  V30 14 C  23.6639 36.5863 84.1917 0
M  V30 15 C  22.8907 35.7339 83.3432 0
M  V30 16 O  21.6778 35.6453 83.2431 0
M  V30 17 C  22.9983 37.5990 85.0588 0
M  V30 18 N  23.4276 38.8669 84.8438 0
M  V30 19 C  22.8529 39.8300 85.5976 0
M  V30 20 N  21.7855 39.6880 86.4219 0
M  V30 21 C  21.3020 38.4270 86.5811 0
M  V30 22 C  21.9417 37.3028 85.9759 0
M  V30 23 C  20.1429 38.2248 87.3662 0
M  V30 24 C  19.6998 36.9319 87.6431 0
M  V30 25 C  20.4004 35.8316 87.1628 0
M  V30 26 C  21.4893 36.0061 86.3185 0
M  V30 27 N  23.4805 41.0550 85.5983 0
M  V30 28 C  24.0886 41.6469 86.8013 0
M  V30 29 C  23.5640 43.0578 87.1439 0
M  V30 30 N  23.7017 43.9535 85.8950 0 CHG=1
M  V30 31 C  23.2071 45.3819 86.2049 0
M  V30 32 C  22.8820 43.2996 84.7604 0
M  V30 33 C  23.5206 41.9384 84.4322 0
M  V30 34 H  30.0721 38.9916 85.5618 0
M  V30 35 H  31.3186 38.0329 83.6512 0
M  V30 36 H  30.2229 36.5733 82.0269 0
M  V30 37 H  27.8612 36.0615 82.1828 0
M  V30 38 H  25.3130 37.9002 86.3963 0
M  V30 39 H  27.4805 38.9321 86.7543 0
M  V30 40 H  23.4761 34.3368 81.9770 0
M  V30 41 H  19.6166 39.0801 87.7632 0
M  V30 42 H  18.8231 36.7803 88.2559 0
M  V30 43 H  20.0833 34.8330 87.4193 0
M  V30 44 H  21.9981 35.1566 85.9078 0
M  V30 45 H  23.9128 40.9884 87.6547 0
M  V30 46 H  25.1715 41.6575 86.6713 0
M  V30 47 H  24.1518 43.5247 87.9369 0
M  V30 48 H  22.5088 43.0486 87.4330 0
M  V30 49 H  22.1399 45.3349 86.4423 0
M  V30 50 H  23.7828 45.7631 87.0497 0
M  V30 51 H  23.3872 45.9886 85.3158 0
M  V30 52 H  22.8831 43.9565 83.8972 0
M  V30 53 H  21.8515 43.2061 85.1078 0
M  V30 54 H  24.5470 42.0377 84.0730 0
M  V30 55 H  22.9700 41.4777 83.6091 0
M  V30 56 H  24.6710 43.9864 85.6068 0
M  V30 END ATOM
M  V30 BEGIN BOND
M  V30 1 2 1 2
M  V30 2 1 1 6
M  V30 3 1 1 34
M  V30 4 1 2 3
M  V30 5 1 2 35
M  V30 6 2 3 4
M  V30 7 1 3 36
M  V30 8 1 4 5
M  V30 9 1 4 37
M  V30 10 2 5 6
M  V30 11 1 5 7
M  V30 12 1 6 9
M  V30 13 2 7 8
M  V30 14 1 7 10
M  V30 15 1 8 9
M  V30 16 1 8 38
M  V30 17 1 9 39
M  V30 18 1 10 11
M  V30 19 2 10 14
M  V30 20 2 11 12
M  V30 21 1 11 13
M  V30 22 1 13 15
M  V30 23 1 13 40
M  V30 24 1 14 15
M  V30 25 1 14 17
M  V30 26 2 15 16
M  V30 27 2 17 18
M  V30 28 1 17 22
M  V30 29 1 18 19
M  V30 30 2 19 20
M  V30 31 1 19 27
M  V30 32 1 20 21
M  V30 33 2 21 22
M  V30 34 1 21 23
M  V30 35 1 22 26
M  V30 36 2 23 24
M  V30 37 1 23 41
M  V30 38 1 24 25
M  V30 39 1 24 42
M  V30 40 2 25 26
M  V30 41 1 25 43
M  V30 42 1 26 44
M  V30 43 1 27 28
M  V30 44 1 27 33
M  V30 45 1 28 29
M  V30 46 1 28 45
M  V30 47 1 28 46
M  V30 48 1 29 30
M  V30 49 1 29 47
M  V30 50 1 29 48
M  V30 51 1 30 31
M  V30 52 1 30 32
M  V30 53 1 30 56
M  V30 54 1 31 49
M  V30 55 1 31 50
M  V30 56 1 31 51
M  V30 57 1 32 33
M  V30 58 1 32 52
M  V30 59 1 32 53
M  V30 60 1 33 54
M  V30 61 1 33 55
M  V30 END BOND
M  V30 END CTAB
M  END
> <s_m_entry_id>
219

> <s_m_entry_name>
result.6400

> <s_m_Source_Path>
D:\OneDrive - zju.edu.cn\DOC\A-Finished\LCK_VS\Planet\LCK-8617

> <s_m_Source_File>
glide-dock_SP_top1262_2_pv.maegz

> <i_m_Source_File_Index>
219

> <PLANET_affinity>
7.506

> <i_lp_mmshare_version>
54117

> <i_f3d_flags>
0

> <s_epik_input>
W2NIXTFbY0hdW2NIXVtjSF1jKGMxMilbbkhdW2NIXWMyQzM9QyhDKD1PKVtOSF1DMz1PKWMoYyhjNDUpW2NIXVtjSF1bY0hdW2NIXTUpbmMobjQpTjZbQ0gyXVtDSDJdTihbQ0gzXSlbQ0gyXVtDSDJdNg==

> <s_epik_cmdline>
J2VwaWtfcHl0aG9uJywgJy1waCcsICc3LjAnLCAnLXRuJywgJzgnLCAnLW1hJywgJzUwMCcsICctaW1hZScsICc8aW5maWxlLm1hZT4nLCAnLW9tYWUnLCAnPG91dGZpbGUubWFlPic=

> <r_epik_Ionization_Penalty>
  0.4702

> <r_epik_Ionization_Penalty_Charging>
  0.1866

> <r_epik_Ionization_Penalty_Neutral>
  0.2836

> <r_epik_State_Penalty>
  0.4385

> <r_epik_Charging_Adjusted_Penalty>
0.625125

> <i_epik_Tot_Q>
1

> <i_epik_Tot_abs_Q>
1

> <s_lp_Force_Field>
S-OPLS

> <r_lp_Energy>
65.4414

> <b_lp_Chiralities_Consistent>
1

> <s_lp_Variant>
O=C(C(C1=C2C=CC=CC2=NC(N3CCN(C)CC3)=N1)=C4C5=CNC6=C5C=CC=C6)NC4=O-1

> <s_i_glide_gridfile>
glide-grid_1

> <i_i_glide_lignum>
1923

> <i_i_glide_rotatable_bonds>
3

> <r_i_docking_score>
-8.55199876330241

> <r_i_glide_ligand_efficiency>
-0.259151477675831

> <r_i_glide_ligand_efficiency_sa>
-0.831237260345564

> <r_i_glide_ligand_efficiency_ln>
-1.90192024507867

> <r_i_glide_gscore>
-8.99049876330241

> <r_i_glide_lipo>
-2.97696435721711

> <r_i_glide_hbond>
-0.550853216941273

> <r_i_glide_metal>
0

> <r_i_glide_rewards>
-2.23606645396231

> <r_i_glide_evdw>
-40.9902954101562

> <r_i_glide_ecoul>
-8.97827625274658

> <r_i_glide_erotb>
0.2169974150279

> <r_i_glide_esite>
-0.0473559417898187

> <r_i_glide_emodel>
-77.5151453170784

> <r_i_glide_energy>
-49.9685716629028

> <r_i_glide_einternal>
10.2311038970947

> <i_i_glide_confnum>
7

> <i_i_glide_posenum>
221

> <r_i_glide_eff_state_penalty>
0.4385

> <s_m_subgroup_title>
glide-dock_SP_top1262_2_pv

> <s_m_subgroupid>
glide-dock_SP_top1262_2_pv

> <b_m_subgroup_collapsed>
0

$$$$
O=C1C(C2=NC3=CC(N4CCOCC4)=CC(C)=C3N2)=C(C=CN1)NC[C@@H](O)C5=CC=CC(Cl)=C5
                    3D
 Schrodinger Suite 2021-3.
  0  0  0     0  0            999 V3000
M  V30 BEGIN CTAB
M  V30 COUNTS 60 64 0 0 0
M  V30 BEGIN ATOM
M  V30 1 Cl 17.4264 37.5567 87.3704 0
M  V30 2 C  19.1227 37.2563 87.3783 0
M  V30 3 C  20.0455 38.2929 87.2164 0
M  V30 4 C  19.5678 35.9499 87.5378 0
M  V30 5 C  20.9224 35.6513 87.4663 0
M  V30 6 C  21.8384 36.6842 87.2973 0
M  V30 7 C  21.4234 38.0162 87.1939 0
M  V30 8 C  22.4799 39.1231 87.0657 0 CFG=2
M  V30 9 O  22.0003 40.3888 87.4927 0
M  V30 10 C  23.1007 39.2727 85.6484 0
M  V30 11 N  24.0490 38.2233 85.2587 0
M  V30 12 C  23.8392 37.1328 84.4450 0
M  V30 13 C  22.4605 36.7249 84.1726 0
M  V30 14 C  22.2498 35.7876 83.2426 0
M  V30 15 N  23.2556 35.1566 82.5926 0
M  V30 16 C  24.8648 36.4982 83.7770 0
M  V30 17 C  24.5601 35.3600 82.8801 0
M  V30 18 O  25.3682 34.5446 82.4441 0
M  V30 19 C  26.3011 36.9020 83.8473 0
M  V30 20 N  27.2943 36.3728 83.0463 0
M  V30 21 N  26.8014 37.8141 84.6564 0
M  V30 22 C  28.1431 37.8919 84.3613 0
M  V30 23 C  28.4832 36.9747 83.3462 0
M  V30 24 C  29.1409 38.7181 84.9063 0
M  V30 25 C  28.8765 39.7203 86.0171 0
M  V30 26 C  30.4341 38.5940 84.3797 0
M  V30 27 C  30.7623 37.6797 83.3620 0
M  V30 28 C  29.7734 36.8325 82.8440 0
M  V30 29 N  32.0423 37.6207 82.8123 0
M  V30 30 C  33.0443 38.6779 83.0451 0
M  V30 31 C  34.1858 38.6662 82.0039 0
M  V30 32 O  34.7993 37.3862 81.9662 0
M  V30 33 C  33.8701 36.3705 81.6119 0
M  V30 34 C  32.7190 36.3189 82.6413 0
M  V30 35 H  19.6882 39.3077 87.1095 0
M  V30 36 H  18.8535 35.1565 87.6842 0
M  V30 37 H  21.2596 34.6274 87.5518 0
M  V30 38 H  22.8829 36.4421 87.2391 0
M  V30 39 H  23.2801 38.8814 87.7680 0
M  V30 40 H  22.6288 41.0702 87.2415 0
M  V30 41 H  22.3179 39.3868 84.8964 0
M  V30 42 H  23.6597 40.2091 85.6099 0
M  V30 43 H  25.0235 38.4778 85.3799 0
M  V30 44 H  21.6231 37.1770 84.6768 0
M  V30 45 H  21.2820 35.3854 82.9734 0
M  V30 46 H  23.0567 34.3429 82.0223 0
M  V30 47 H  27.1041 35.6426 82.3699 0
M  V30 48 H  29.7743 40.2682 86.3075 0
M  V30 49 H  28.1219 40.4406 85.6991 0
M  V30 50 H  28.4917 39.2074 86.8991 0
M  V30 51 H  31.2055 39.2327 84.7840 0
M  V30 52 H  29.9813 36.1384 82.0429 0
M  V30 53 H  32.5551 39.6511 82.9812 0
M  V30 54 H  33.4463 38.5893 84.0564 0
M  V30 55 H  34.9407 39.4058 82.2722 0
M  V30 56 H  33.8143 38.9456 81.0154 0
M  V30 57 H  34.3926 35.4131 81.5885 0
M  V30 58 H  33.4829 36.5359 80.6027 0
M  V30 59 H  33.0885 35.9750 83.6100 0
M  V30 60 H  32.0168 35.5581 82.3004 0
M  V30 END ATOM
M  V30 BEGIN BOND
M  V30 1 1 1 2
M  V30 2 2 2 3
M  V30 3 1 2 4
M  V30 4 1 3 7
M  V30 5 1 3 35
M  V30 6 2 4 5
M  V30 7 1 4 36
M  V30 8 1 5 6
M  V30 9 1 5 37
M  V30 10 2 6 7
M  V30 11 1 6 38
M  V30 12 1 7 8
M  V30 13 1 8 9
M  V30 14 1 8 10
M  V30 15 1 8 39
M  V30 16 1 9 40
M  V30 17 1 10 11
M  V30 18 1 10 41
M  V30 19 1 10 42
M  V30 20 1 11 12
M  V30 21 1 11 43
M  V30 22 1 12 13
M  V30 23 2 12 16
M  V30 24 2 13 14
M  V30 25 1 13 44
M  V30 26 1 14 15
M  V30 27 1 14 45
M  V30 28 1 15 17
M  V30 29 1 15 46
M  V30 30 1 16 17
M  V30 31 1 16 19
M  V30 32 2 17 18
M  V30 33 1 19 20
M  V30 34 2 19 21
M  V30 35 1 20 23
M  V30 36 1 20 47
M  V30 37 1 21 22
M  V30 38 2 22 23
M  V30 39 1 22 24
M  V30 40 1 23 28
M  V30 41 1 24 25
M  V30 42 2 24 26
M  V30 43 1 25 48
M  V30 44 1 25 49
M  V30 45 1 25 50
M  V30 46 1 26 27
M  V30 47 1 26 51
M  V30 48 2 27 28
M  V30 49 1 27 29
M  V30 50 1 28 52
M  V30 51 1 29 30
M  V30 52 1 29 34
M  V30 53 1 30 31
M  V30 54 1 30 53
M  V30 55 1 30 54
M  V30 56 1 31 32
M  V30 57 1 31 55
M  V30 58 1 31 56
M  V30 59 1 32 33
M  V30 60 1 33 34
M  V30 61 1 33 57
M  V30 62 1 33 58
M  V30 63 1 34 59
M  V30 64 1 34 60
M  V30 END BOND
M  V30 END CTAB
M  END
> <s_m_entry_id>
220

> <s_m_entry_name>
result.1192

> <s_m_Source_Path>
D:\OneDrive - zju.edu.cn\DOC\A-Finished\LCK_VS\Planet\LCK-8617

> <s_m_Source_File>
glide-dock_SP_top1262_2_pv.maegz

> <i_m_Source_File_Index>
220

> <PLANET_affinity>
7.652

> <i_lp_mmshare_version>
54117

> <i_f3d_flags>
0

> <s_epik_input>
Q2xjMVtjSF1jKFtjSF1bY0hdW2NIXTEpW0NASF0oW09IXSlbQ0gyXVtOSF1jMltjSF1bY0hdW25IXWMoPU8pYzItYyhuMylbbkhdYyhjMzQpW2NIXWMoW2NIXWM0W0NIM10pTjVbQ0gyXVtDSDJdT1tDSDJdW0NIMl01

> <s_epik_cmdline>
J2VwaWtfcHl0aG9uJywgJy1waCcsICc3LjAnLCAnLXRuJywgJzgnLCAnLW1hJywgJzUwMCcsICctaW1hZScsICc8aW5maWxlLm1hZT4nLCAnLW9tYWUnLCAnPG91dGZpbGUubWFlPic=

> <r_epik_Ionization_Penalty>
  0.0008

> <r_epik_Ionization_Penalty_Charging>
  0.0000

> <r_epik_Ionization_Penalty_Neutral>
  0.0008

> <r_epik_State_Penalty>
  0.3845

> <r_epik_Charging_Adjusted_Penalty>
0.384451

> <i_epik_Tot_Q>
0

> <i_epik_Tot_abs_Q>
0

> <s_lp_Force_Field>
S-OPLS

> <r_lp_Energy>
46.205

> <b_lp_Chiralities_Consistent>
1

> <s_lp_Variant>
O=C1C(C2=NC3=CC(N4CCOCC4)=CC(C)=C3N2)=C(C=CN1)NC[C@@H](O)C5=CC=CC(Cl)=C5-1

> <s_i_glide_gridfile>
glide-grid_1

> <i_i_glide_lignum>
1727

> <i_i_glide_rotatable_bonds>
7

> <r_i_docking_score>
-8.55138435726863

> <r_i_glide_ligand_efficiency>
-0.251511304625548

> <r_i_glide_ligand_efficiency_sa>
-0.814798989661862

> <r_i_glide_ligand_efficiency_ln>
-1.88924066272732

> <r_i_glide_gscore>
-8.93588435726863

> <r_i_glide_lipo>
-3.80918962570567

> <r_i_glide_hbond>
-0.584728027190338

> <r_i_glide_metal>
0

> <r_i_glide_rewards>
-1.41165692206429

> <r_i_glide_evdw>
-42.8223648071289

> <r_i_glide_ecoul>
-8.64833641052246

> <r_i_glide_erotb>
0.308058919626486

> <r_i_glide_esite>
0

> <r_i_glide_emodel>
-78.5113327935479

> <r_i_glide_energy>
-51.4707012176514

> <r_i_glide_einternal>
4.00769281387329

> <i_i_glide_confnum>
243

> <i_i_glide_posenum>
261

> <r_i_glide_eff_state_penalty>
0.3845

> <r_lp_tautomer_probability>
0.999206

> <s_m_subgroup_title>
glide-dock_SP_top1262_2_pv

> <s_m_subgroupid>
glide-dock_SP_top1262_2_pv

> <b_m_subgroup_collapsed>
0

$$$$
O=C(C1(CCCCN2CCC(NC(C3=CC=CC=C3C4=CC=C(C(F)(F)F)C=C4)=O)CC2)C5=C(C6=C1C=CC=C6...
                    3D
 Schrodinger Suite 2021-3.
  0  0  0     0  0            999 V3000
M  V30 BEGIN CTAB
M  V30 COUNTS 88 93 0 0 0
M  V30 BEGIN ATOM
M  V30 1 C  20.4760 45.4566 93.2429 0
M  V30 2 C  19.1413 45.0987 93.4420 0
M  V30 3 C  18.7947 43.7602 93.6438 0
M  V30 4 C  19.7841 42.7747 93.6298 0
M  V30 5 C  21.1156 43.1332 93.4167 0
M  V30 6 C  21.4729 44.4740 93.2412 0
M  V30 7 C  22.3338 42.3136 93.3448 0
M  V30 8 C  23.4275 43.1547 93.1298 0
M  V30 9 C  24.7101 42.6086 93.0237 0
M  V30 10 C  24.8931 41.2292 93.1336 0
M  V30 11 C  23.7968 40.3915 93.3474 0
M  V30 12 C  22.5167 40.9328 93.4638 0
M  V30 13 C  22.9880 44.6208 93.1043 0
M  V30 14 C  23.5277 45.3662 94.3748 0
M  V30 15 O  23.9017 44.7295 95.3649 0
M  V30 16 N  23.5064 46.7118 94.3936 0
M  V30 17 C  23.8936 47.5456 95.5431 0
M  V30 18 C  25.4074 47.5818 95.8569 0
M  V30 19 F  25.8708 46.4069 96.2879 0
M  V30 20 F  26.1207 47.9241 94.7824 0
M  V30 21 F  25.6642 48.4796 96.8069 0
M  V30 22 C  23.4105 45.3612 91.7852 0
M  V30 23 C  22.8624 44.7514 90.4682 0
M  V30 24 C  23.1022 45.6490 89.2344 0
M  V30 25 C  22.3476 45.2019 87.9670 0
M  V30 26 N  22.8738 43.8461 87.4338 0 CHG=1 CFG=1
M  V30 27 C  21.8275 43.2435 86.4738 0
M  V30 28 C  22.3009 41.8620 86.0016 0
M  V30 29 C  23.7154 41.8638 85.3647 0 CFG=1
M  V30 30 C  24.7295 42.6276 86.2445 0
M  V30 31 C  24.2311 44.0071 86.7121 0
M  V30 32 N  24.1948 40.5544 84.9152 0
M  V30 33 C  24.2020 39.4174 85.6385 0
M  V30 34 O  23.9418 39.3562 86.8408 0
M  V30 35 C  24.5024 38.1698 84.8481 0
M  V30 36 C  25.7452 38.0614 84.1988 0
M  V30 37 C  26.0760 36.9168 83.4771 0
M  V30 38 C  25.1704 35.8641 83.3990 0
M  V30 39 C  23.9335 35.9597 84.0371 0
M  V30 40 C  23.5750 37.1002 84.7696 0
M  V30 41 C  22.2144 37.1474 85.3834 0
M  V30 42 C  21.3038 38.1423 85.0107 0
M  V30 43 C  20.0521 38.2154 85.6129 0
M  V30 44 C  19.6883 37.2869 86.5887 0
M  V30 45 C  18.3372 37.4201 87.2808 0
M  V30 46 F  18.0687 36.3693 88.0576 0
M  V30 47 F  18.3776 38.5078 88.0436 0
M  V30 48 F  17.3545 37.5552 86.3861 0
M  V30 49 C  20.5780 36.2645 86.9385 0
M  V30 50 C  21.8315 36.2000 86.3381 0
M  V30 51 H  20.7245 46.4978 93.1119 0
M  V30 52 H  18.3723 45.8585 93.4522 0
M  V30 53 H  17.7627 43.4870 93.8115 0
M  V30 54 H  19.5085 41.7431 93.7968 0
M  V30 55 H  25.5702 43.2461 92.8718 0
M  V30 56 H  25.8855 40.8076 93.0649 0
M  V30 57 H  23.9385 39.3259 93.4552 0
M  V30 58 H  21.6805 40.2762 93.6550 0
M  V30 59 H  23.1786 47.1965 93.5700 0
M  V30 60 H  23.5589 48.5654 95.3486 0
M  V30 61 H  23.3491 47.2213 96.4335 0
M  V30 62 H  23.0749 46.3987 91.8253 0
M  V30 63 H  24.5005 45.4059 91.7259 0
M  V30 64 H  23.3080 43.7687 90.3101 0
M  V30 65 H  21.7907 44.5801 90.5692 0
M  V30 66 H  22.7705 46.6652 89.4613 0
M  V30 67 H  24.1718 45.7388 89.0430 0
M  V30 68 H  21.2856 45.0702 88.1856 0
M  V30 69 H  22.4273 45.9157 87.1473 0
M  V30 70 H  20.8955 43.1529 87.0294 0
M  V30 71 H  21.6850 43.9436 85.6473 0
M  V30 72 H  22.2792 41.2027 86.8684 0
M  V30 73 H  21.5749 41.4622 85.2918 0
M  V30 74 H  23.5893 42.4465 84.4484 0
M  V30 75 H  25.6621 42.7605 85.6934 0
M  V30 76 H  24.9703 42.0225 87.1208 0
M  V30 77 H  24.0766 44.6888 85.8718 0
M  V30 78 H  24.9297 44.4555 87.4141 0
M  V30 79 H  24.3699 40.4598 83.9260 0
M  V30 80 H  26.4663 38.8645 84.2603 0
M  V30 81 H  27.0333 36.8468 82.9789 0
M  V30 82 H  25.4187 34.9786 82.8295 0
M  V30 83 H  23.2322 35.1458 83.9423 0
M  V30 84 H  21.5772 38.8715 84.2640 0
M  V30 85 H  19.3694 39.0083 85.3347 0
M  V30 86 H  20.3186 35.5273 87.6865 0
M  V30 87 H  22.5091 35.4191 86.6404 0
M  V30 88 H  22.9857 43.2096 88.2105 0
M  V30 END ATOM
M  V30 BEGIN BOND
M  V30 1 2 1 2
M  V30 2 1 1 6
M  V30 3 1 1 51
M  V30 4 1 2 3
M  V30 5 1 2 52
M  V30 6 2 3 4
M  V30 7 1 3 53
M  V30 8 1 4 5
M  V30 9 1 4 54
M  V30 10 2 5 6
M  V30 11 1 5 7
M  V30 12 1 6 13
M  V30 13 2 7 8
M  V30 14 1 7 12
M  V30 15 1 8 9
M  V30 16 1 8 13
M  V30 17 2 9 10
M  V30 18 1 9 55
M  V30 19 1 10 11
M  V30 20 1 10 56
M  V30 21 2 11 12
M  V30 22 1 11 57
M  V30 23 1 12 58
M  V30 24 1 13 14
M  V30 25 1 13 22
M  V30 26 2 14 15
M  V30 27 1 14 16
M  V30 28 1 16 17
M  V30 29 1 16 59
M  V30 30 1 17 18
M  V30 31 1 17 60
M  V30 32 1 17 61
M  V30 33 1 18 19
M  V30 34 1 18 20
M  V30 35 1 18 21
M  V30 36 1 22 23
M  V30 37 1 22 62
M  V30 38 1 22 63
M  V30 39 1 23 24
M  V30 40 1 23 64
M  V30 41 1 23 65
M  V30 42 1 24 25
M  V30 43 1 24 66
M  V30 44 1 24 67
M  V30 45 1 25 26
M  V30 46 1 25 68
M  V30 47 1 25 69
M  V30 48 1 26 27
M  V30 49 1 26 31
M  V30 50 1 26 88
M  V30 51 1 27 28
M  V30 52 1 27 70
M  V30 53 1 27 71
M  V30 54 1 28 29
M  V30 55 1 28 72
M  V30 56 1 28 73
M  V30 57 1 29 30
M  V30 58 1 29 32
M  V30 59 1 29 74
M  V30 60 1 30 31
M  V30 61 1 30 75
M  V30 62 1 30 76
M  V30 63 1 31 77
M  V30 64 1 31 78
M  V30 65 1 32 33
M  V30 66 1 32 79
M  V30 67 2 33 34
M  V30 68 1 33 35
M  V30 69 2 35 36
M  V30 70 1 35 40
M  V30 71 1 36 37
M  V30 72 1 36 80
M  V30 73 2 37 38
M  V30 74 1 37 81
M  V30 75 1 38 39
M  V30 76 1 38 82
M  V30 77 2 39 40
M  V30 78 1 39 83
M  V30 79 1 40 41
M  V30 80 2 41 42
M  V30 81 1 41 50
M  V30 82 1 42 43
M  V30 83 1 42 84
M  V30 84 2 43 44
M  V30 85 1 43 85
M  V30 86 1 44 45
M  V30 87 1 44 49
M  V30 88 1 45 46
M  V30 89 1 45 47
M  V30 90 1 45 48
M  V30 91 2 49 50
M  V30 92 1 49 86
M  V30 93 1 50 87
M  V30 END BOND
M  V30 END CTAB
M  END
> <s_m_entry_id>
224

> <s_m_entry_name>
result.1597

> <s_m_Source_Path>
D:\OneDrive - zju.edu.cn\DOC\A-Finished\LCK_VS\Planet\LCK-8617

> <s_m_Source_File>
glide-dock_SP_top1262_2_pv.maegz

> <i_m_Source_File_Index>
224

> <PLANET_affinity>
7.628

> <i_lp_mmshare_version>
54117

> <i_f3d_flags>
0

> <s_epik_input>
W2NIXTFbY0hdW2NIXVtjSF1jMmMxQyhDKD1PKVtOSF1bQ0gyXUMoRikoRilGKShjKGMyMylbY0hdW2NIXVtjSF1bY0hdMylbQ0gyXVtDSDJdW0NIMl1bQ0gyXU40W0NIMl1bQ0gyXVtDSF0oW0NIMl1bQ0gyXTQpW05IXUMoPU8pYzVbY0hdW2NIXVtjSF1bY0hdYzUtYzZbY0hdW2NIXWMoQyhGKShGKUYpW2NIXVtjSF02

> <s_epik_cmdline>
J2VwaWtfcHl0aG9uJywgJy1waCcsICc3LjAnLCAnLXRuJywgJzgnLCAnLW1hJywgJzUwMCcsICctaW1hZScsICc8aW5maWxlLm1hZT4nLCAnLW9tYWUnLCAnPG91dGZpbGUubWFlPic=

> <r_epik_Ionization_Penalty>
  0.0042

> <r_epik_Ionization_Penalty_Charging>
  0.0042

> <r_epik_Ionization_Penalty_Neutral>
  0.0000

> <r_epik_State_Penalty>
  0.0031

> <r_epik_Charging_Adjusted_Penalty>
0.00730231

> <i_epik_Tot_Q>
1

> <i_epik_Tot_abs_Q>
1

> <s_lp_Force_Field>
S-OPLS

> <r_lp_Energy>
73.8419

> <b_lp_Chiralities_Consistent>
1

> <s_lp_Variant>
O=C(C1(CCCCN2CCC(NC(C3=CC=CC=C3C4=CC=C(C(F)(F)F)C=C4)=O)CC2)C5=C(C6=C1C=CC=C6...-1

> <s_i_glide_gridfile>
glide-grid_1

> <i_i_glide_lignum>
1755

> <i_i_glide_rotatable_bonds>
14

> <r_i_docking_score>
-8.5430474642466

> <r_i_glide_ligand_efficiency>
-0.170860949284932

> <r_i_glide_ligand_efficiency_sa>
-0.629457118232471

> <r_i_glide_ligand_efficiency_ln>
-1.73921161501196

> <r_i_glide_gscore>
-8.5461474642466

> <r_i_glide_lipo>
-3.88296439693703

> <r_i_glide_hbond>
0

> <r_i_glide_metal>
0

> <r_i_glide_rewards>
-0.951473832664779

> <r_i_glide_evdw>
-51.0548324584961

> <r_i_glide_ecoul>
-9.14878463745117

> <r_i_glide_erotb>
0.359673635089801

> <r_i_glide_esite>
-0.146323551192112

> <r_i_glide_emodel>
-92.928980987025

> <r_i_glide_energy>
-60.2036170959473

> <r_i_glide_einternal>
6.40909147262573

> <i_i_glide_confnum>
191

> <i_i_glide_posenum>
14

> <r_i_glide_eff_state_penalty>
0.0031

> <s_m_subgroup_title>
glide-dock_SP_top1262_2_pv

> <s_m_subgroupid>
glide-dock_SP_top1262_2_pv

> <b_m_subgroup_collapsed>
0

$$$$
CC1=NC=C(CCCN(C)C)C=C1NC2=NC(C(C=CC(C(F)(F)F)=C3)=C3NC(C4)=S)=C4C=N2
                    3D
 Schrodinger Suite 2021-3.
  0  0  0     0  0            999 V3000
M  V30 BEGIN CTAB
M  V30 COUNTS 60 63 0 0 0
M  V30 BEGIN ATOM
M  V30 1 C  34.6164 34.2413 79.2643 0
M  V30 2 N  33.6830 35.4352 79.5585 0 CHG=1
M  V30 3 C  34.0856 36.6899 78.7537 0
M  V30 4 C  33.5161 35.7552 81.0630 0
M  V30 5 C  32.8927 34.5651 81.8205 0
M  V30 6 C  32.3863 34.9238 83.2296 0
M  V30 7 C  31.2535 35.9446 83.2432 0
M  V30 8 C  31.4587 37.2273 83.7506 0
M  V30 9 N  30.4796 38.1604 83.8129 0
M  V30 10 C  29.2349 37.8272 83.3821 0
M  V30 11 C  28.2727 39.0106 83.4009 0
M  V30 12 C  29.9703 35.6172 82.7919 0
M  V30 13 C  28.9211 36.5395 82.8868 0
M  V30 14 N  27.6488 36.0999 82.4681 0
M  V30 15 C  26.3864 36.2327 83.0633 0
M  V30 16 N  26.2653 36.9753 84.1886 0
M  V30 17 N  25.3771 35.5240 82.4989 0
M  V30 18 C  24.1841 35.5521 83.1493 0
M  V30 19 C  23.9741 36.2729 84.3328 0
M  V30 20 C  22.6774 36.2209 85.1232 0
M  V30 21 C  21.9232 37.5348 85.1004 0
M  V30 22 S  20.4057 37.6926 84.4435 0
M  V30 23 N  22.5807 38.5747 85.6889 0
M  V30 24 C  23.8085 38.6691 86.3734 0
M  V30 25 C  24.9741 37.9491 85.9977 0
M  V30 26 C  25.0546 37.0324 84.8069 0
M  V30 27 C  23.8833 39.5589 87.4527 0
M  V30 28 C  25.0585 39.7445 88.1860 0
M  V30 29 C  25.0929 40.7107 89.3703 0
M  V30 30 F  26.0135 40.3533 90.2690 0
M  V30 31 F  25.3879 41.9314 88.9251 0
M  V30 32 F  23.9117 40.7569 89.9915 0
M  V30 33 C  26.1885 39.0098 87.8347 0
M  V30 34 C  26.1423 38.1281 86.7620 0
M  V30 35 H  35.5920 34.4557 79.7037 0
M  V30 36 H  34.6818 34.1323 78.1800 0
M  V30 37 H  34.1627 33.3483 79.6992 0
M  V30 38 H  35.0822 36.9937 79.0816 0
M  V30 39 H  33.3497 37.4724 78.9508 0
M  V30 40 H  34.0834 36.4217 77.6957 0
M  V30 41 H  34.4960 36.0436 81.4485 0
M  V30 42 H  32.8486 36.6186 81.0845 0
M  V30 43 H  32.0812 34.1272 81.2440 0
M  V30 44 H  33.6382 33.7752 81.9245 0
M  V30 45 H  32.0314 34.0203 83.7292 0
M  V30 46 H  33.2154 35.2805 83.8434 0
M  V30 47 H  32.4248 37.5318 84.1255 0
M  V30 48 H  27.8915 39.1697 84.4099 0
M  V30 49 H  27.4243 38.8709 82.7304 0
M  V30 50 H  28.7761 39.9295 83.0961 0
M  V30 51 H  29.7788 34.6283 82.4050 0
M  V30 52 H  27.6642 35.4389 81.7030 0
M  V30 53 H  23.3932 34.9522 82.7191 0
M  V30 54 H  22.0537 35.4108 84.7419 0
M  V30 55 H  22.8891 35.9553 86.1607 0
M  V30 56 H  22.0286 39.4210 85.6975 0
M  V30 57 H  23.0047 40.1270 87.7281 0
M  V30 58 H  27.1122 39.1209 88.3855 0
M  V30 59 H  27.0453 37.5868 86.5185 0
M  V30 60 H  32.7509 35.1574 79.2440 0
M  V30 END ATOM
M  V30 BEGIN BOND
M  V30 1 1 1 2
M  V30 2 1 1 35
M  V30 3 1 1 36
M  V30 4 1 1 37
M  V30 5 1 2 3
M  V30 6 1 2 4
M  V30 7 1 2 60
M  V30 8 1 3 38
M  V30 9 1 3 39
M  V30 10 1 3 40
M  V30 11 1 4 5
M  V30 12 1 4 41
M  V30 13 1 4 42
M  V30 14 1 5 6
M  V30 15 1 5 43
M  V30 16 1 5 44
M  V30 17 1 6 7
M  V30 18 1 6 45
M  V30 19 1 6 46
M  V30 20 2 7 8
M  V30 21 1 7 12
M  V30 22 1 8 9
M  V30 23 1 8 47
M  V30 24 2 9 10
M  V30 25 1 10 11
M  V30 26 1 10 13
M  V30 27 1 11 48
M  V30 28 1 11 49
M  V30 29 1 11 50
M  V30 30 2 12 13
M  V30 31 1 12 51
M  V30 32 1 13 14
M  V30 33 1 14 15
M  V30 34 1 14 52
M  V30 35 2 15 16
M  V30 36 1 15 17
M  V30 37 1 16 26
M  V30 38 2 17 18
M  V30 39 1 18 19
M  V30 40 1 18 53
M  V30 41 1 19 20
M  V30 42 2 19 26
M  V30 43 1 20 21
M  V30 44 1 20 54
M  V30 45 1 20 55
M  V30 46 2 21 22
M  V30 47 1 21 23
M  V30 48 1 23 24
M  V30 49 1 23 56
M  V30 50 2 24 25
M  V30 51 1 24 27
M  V30 52 1 25 26
M  V30 53 1 25 34
M  V30 54 2 27 28
M  V30 55 1 27 57
M  V30 56 1 28 29
M  V30 57 1 28 33
M  V30 58 1 29 30
M  V30 59 1 29 31
M  V30 60 1 29 32
M  V30 61 2 33 34
M  V30 62 1 33 58
M  V30 63 1 34 59
M  V30 END BOND
M  V30 END CTAB
M  END
> <s_m_entry_id>
233

> <s_m_entry_name>
result.8473

> <s_m_Source_Path>
D:\OneDrive - zju.edu.cn\DOC\A-Finished\LCK_VS\Planet\LCK-8617

> <s_m_Source_File>
glide-dock_SP_top1262_2_pv.maegz

> <i_m_Source_File_Index>
233

> <PLANET_affinity>
9.667

> <i_lp_mmshare_version>
54117

> <i_f3d_flags>
0

> <s_epik_input>
W0NIM11OKFtDSDNdKVtDSDJdW0NIMl1bQ0gyXWMxW2NIXW5jKFtDSDNdKWMoW2NIXTEpW05IXWMobltjSF0yKW5jKGMyMyljNGMoW05IXUMoPVMpW0NIMl0zKVtjSF1jKEMoRikoRilGKVtjSF1bY0hdNA==

> <s_epik_cmdline>
J2VwaWtfcHl0aG9uJywgJy1waCcsICc3LjAnLCAnLXRuJywgJzgnLCAnLW1hJywgJzUwMCcsICctaW1hZScsICc8aW5maWxlLm1hZT4nLCAnLW9tYWUnLCAnPG91dGZpbGUubWFlPic=

> <r_epik_Ionization_Penalty>
  0.0355

> <r_epik_Ionization_Penalty_Charging>
  0.0021

> <r_epik_Ionization_Penalty_Neutral>
  0.0334

> <r_epik_State_Penalty>
  0.0274

> <r_epik_Charging_Adjusted_Penalty>
0.0294985

> <i_epik_Tot_Q>
1

> <i_epik_Tot_abs_Q>
1

> <s_lp_Force_Field>
S-OPLS

> <r_lp_Energy>
67.3305

> <b_lp_Chiralities_Consistent>
1

> <s_lp_Variant>
CC1=NC=C(CCCN(C)C)C=C1NC2=NC(C(C=CC(C(F)(F)F)=C3)=C3NC(C4)=S)=C4C=N2-1

> <s_i_glide_gridfile>
glide-grid_1

> <i_i_glide_lignum>
307

> <i_i_glide_rotatable_bonds>
7

> <r_i_docking_score>
-8.52063347303239

> <r_i_glide_ligand_efficiency>
-0.250606866853894

> <r_i_glide_ligand_efficiency_sa>
-0.811868962386735

> <r_i_glide_ligand_efficiency_ln>
-1.88244692986645

> <r_i_glide_gscore>
-8.54803347303239

> <r_i_glide_lipo>
-2.57552173983172

> <r_i_glide_hbond>
-0.391764690264421

> <r_i_glide_metal>
0

> <r_i_glide_rewards>
-2.18093678377837

> <r_i_glide_evdw>
-44.7567825317383

> <r_i_glide_ecoul>
-9.18806076049805

> <r_i_glide_erotb>
0.299327253510636

> <r_i_glide_esite>
-0.0830892720068885

> <r_i_glide_emodel>
-83.5691944601469

> <r_i_glide_energy>
-53.9448432922363

> <r_i_glide_einternal>
7.9645881652832

> <i_i_glide_confnum>
88

> <i_i_glide_posenum>
205

> <r_i_glide_eff_state_penalty>
0.0274

> <r_lp_tautomer_probability>
1

> <s_m_subgroup_title>
glide-dock_SP_top1262_2_pv

> <s_m_subgroupid>
glide-dock_SP_top1262_2_pv

> <b_m_subgroup_collapsed>
0

$$$$
OC1=CC=C(C2=C(C)N=C3C(NCC4=CC=CC(S(=O)(C)=O)=C4)=NC=CN32)C=C1F
                    3D
 Schrodinger Suite 2021-3.
  0  0  0     0  0            999 V3000
M  V30 BEGIN CTAB
M  V30 COUNTS 49 52 0 0 0
M  V30 BEGIN ATOM
M  V30 1 O  31.0345 41.5566 84.8435 0
M  V30 2 C  29.9019 40.7940 84.7389 0
M  V30 3 C  29.9877 39.4173 84.9472 0
M  V30 4 C  28.8472 38.6209 84.8432 0
M  V30 5 C  27.6115 39.1961 84.5276 0
M  V30 6 C  27.5317 40.5772 84.3308 0
M  V30 7 C  28.6647 41.3769 84.4435 0
M  V30 8 F  28.5403 42.7128 84.2731 0
M  V30 9 C  26.3593 38.3969 84.4222 0
M  V30 10 C  25.0774 38.6826 84.9105 0
M  V30 11 N  24.2016 37.7614 84.5927 0
M  V30 12 C  24.5981 39.8636 85.7236 0
M  V30 13 N  26.2399 37.1701 83.7998 0
M  V30 14 C  24.8830 36.8140 83.9038 0
M  V30 15 C  27.1397 36.3704 83.1410 0
M  V30 16 C  26.6819 35.1763 82.6023 0
M  V30 17 N  25.3865 34.7978 82.6712 0
M  V30 18 C  24.4819 35.6038 83.2819 0
M  V30 19 N  23.1704 35.1045 83.2435 0
M  V30 20 C  21.9542 35.9074 83.2855 0
M  V30 21 C  21.4448 36.3715 84.6524 0
M  V30 22 C  22.0831 36.0632 85.8602 0
M  V30 23 C  21.5675 36.4933 87.0795 0
M  V30 24 C  20.4172 37.2738 87.1022 0
M  V30 25 C  19.7916 37.6240 85.9050 0
M  V30 26 C  20.2894 37.1566 84.6868 0
M  V30 27 S  18.4212 38.7539 85.9547 0
M  V30 28 O  18.8830 39.8680 86.7890 0
M  V30 29 O  17.9728 38.9736 84.5738 0
M  V30 30 C  17.0917 37.7890 86.8727 0
M  V30 31 H  30.9836 42.3848 84.3314 0
M  V30 32 H  30.9387 38.9682 85.1946 0
M  V30 33 H  28.9279 37.5603 85.0290 0
M  V30 34 H  26.5866 41.0422 84.0915 0
M  V30 35 H  25.4196 40.4171 86.1773 0
M  V30 36 H  24.0324 40.5657 85.1110 0
M  V30 37 H  23.9454 39.5539 86.5406 0
M  V30 38 H  28.1614 36.7062 83.0596 0
M  V30 39 H  27.3537 34.5132 82.0718 0
M  V30 40 H  23.0643 34.2458 82.7172 0
M  V30 41 H  22.0628 36.7566 82.6273 0
M  V30 42 H  21.1777 35.2847 82.8435 0
M  V30 43 H  23.0280 35.5566 85.8554 0
M  V30 44 H  22.0824 36.2547 87.9985 0
M  V30 45 H  20.0365 37.6414 88.0435 0
M  V30 46 H  19.8028 37.4367 83.7628 0
M  V30 47 H  16.1648 38.3566 86.8371 0
M  V30 48 H  16.9491 36.8267 86.3854 0
M  V30 49 H  17.4003 37.6565 87.9080 0
M  V30 END ATOM
M  V30 BEGIN BOND
M  V30 1 1 1 2
M  V30 2 1 1 31
M  V30 3 2 2 3
M  V30 4 1 2 7
M  V30 5 1 3 4
M  V30 6 1 3 32
M  V30 7 2 4 5
M  V30 8 1 4 33
M  V30 9 1 5 6
M  V30 10 1 5 9
M  V30 11 2 6 7
M  V30 12 1 6 34
M  V30 13 1 7 8
M  V30 14 2 9 10
M  V30 15 1 9 13
M  V30 16 1 10 11
M  V30 17 1 10 12
M  V30 18 2 11 14
M  V30 19 1 12 35
M  V30 20 1 12 36
M  V30 21 1 12 37
M  V30 22 1 13 14
M  V30 23 1 13 15
M  V30 24 1 14 18
M  V30 25 2 15 16
M  V30 26 1 15 38
M  V30 27 1 16 17
M  V30 28 1 16 39
M  V30 29 2 17 18
M  V30 30 1 18 19
M  V30 31 1 19 20
M  V30 32 1 19 40
M  V30 33 1 20 21
M  V30 34 1 20 41
M  V30 35 1 20 42
M  V30 36 2 21 22
M  V30 37 1 21 26
M  V30 38 1 22 23
M  V30 39 1 22 43
M  V30 40 2 23 24
M  V30 41 1 23 44
M  V30 42 1 24 25
M  V30 43 1 24 45
M  V30 44 2 25 26
M  V30 45 1 25 27
M  V30 46 1 26 46
M  V30 47 2 27 28
M  V30 48 2 27 29
M  V30 49 1 27 30
M  V30 50 1 30 47
M  V30 51 1 30 48
M  V30 52 1 30 49
M  V30 END BOND
M  V30 END CTAB
M  END
> <s_m_entry_id>
234

> <s_m_entry_name>
result.7695

> <s_m_Source_Path>
D:\OneDrive - zju.edu.cn\DOC\A-Finished\LCK_VS\Planet\LCK-8617

> <s_m_Source_File>
glide-dock_SP_top1262_2_pv.maegz

> <i_m_Source_File_Index>
234

> <PLANET_affinity>
7.354

> <i_lp_mmshare_version>
54117

> <i_f3d_flags>
0

> <s_epik_input>
W09IXWMxW2NIXVtjSF1jKFtjSF1jMUYpLWMyYyhbQ0gzXSluYyhuMjMpYyhuW2NIXVtjSF0zKVtOSF1bQ0gyXWM0W2NIXVtjSF1bY0hdYyhbY0hdNClTKD1PKSg9TylbQ0gzXQ==

> <s_epik_cmdline>
J2VwaWtfcHl0aG9uJywgJy1waCcsICc3LjAnLCAnLXRuJywgJzgnLCAnLW1hJywgJzUwMCcsICctaW1hZScsICc8aW5maWxlLm1hZT4nLCAnLW9tYWUnLCAnPG91dGZpbGUubWFlPic=

> <r_epik_Ionization_Penalty>
  0.0342

> <r_epik_Ionization_Penalty_Charging>
  0.0097

> <r_epik_Ionization_Penalty_Neutral>
  0.0245

> <r_epik_State_Penalty>
  0.0268

> <r_epik_Charging_Adjusted_Penalty>
0.0365144

> <i_epik_Tot_Q>
0

> <i_epik_Tot_abs_Q>
0

> <s_lp_Force_Field>
S-OPLS

> <r_lp_Energy>
35.3678

> <b_lp_Chiralities_Consistent>
1

> <s_lp_Variant>
OC1=CC=C(C2=C(C)N=C3C(NCC4=CC=CC(S(=O)(C)=O)=C4)=NC=CN32)C=C1F-1

> <s_i_glide_gridfile>
glide-grid_1

> <i_i_glide_lignum>
2169

> <i_i_glide_rotatable_bonds>
6

> <r_i_docking_score>
-8.52020284068627

> <r_i_glide_ligand_efficiency>
-0.284006761356209

> <r_i_glide_ligand_efficiency_sa>
-0.882475039796202

> <r_i_glide_ligand_efficiency_ln>
-1.93588292044937

> <r_i_glide_gscore>
-8.54700284068627

> <r_i_glide_lipo>
-2.71414514073788

> <r_i_glide_hbond>
-0.654335651349895

> <r_i_glide_metal>
0

> <r_i_glide_rewards>
-1.96723674757375

> <r_i_glide_evdw>
-40.1592483520508

> <r_i_glide_ecoul>
-9.20790767669678

> <r_i_glide_erotb>
0.305542259143243

> <r_i_glide_esite>
-0.127678991060936

> <r_i_glide_emodel>
-69.9506013445585

> <r_i_glide_energy>
-49.3671560287476

> <r_i_glide_einternal>
8.53767776489258

> <i_i_glide_confnum>
28

> <i_i_glide_posenum>
370

> <r_i_glide_eff_state_penalty>
0.0268

> <r_lp_tautomer_probability>
1

> <s_m_subgroup_title>
glide-dock_SP_top1262_2_pv

> <s_m_subgroupid>
glide-dock_SP_top1262_2_pv

> <b_m_subgroup_collapsed>
0

$$$$
O=C(C1=CC(NC/2=O)=C(C=C1)C2=C(NC3=CC=CC(CN(C)C)=C3)/C4=CC=CC=C4)NC
                    3D
 Schrodinger Suite 2021-3.
  0  0  0     0  0            999 V3000
M  V30 BEGIN CTAB
M  V30 COUNTS 59 62 0 0 0
M  V30 BEGIN ATOM
M  V30 1 C  17.6906 38.3687 86.9214 0
M  V30 2 N  19.0635 38.1667 86.4788 0
M  V30 3 C  19.3989 37.8471 85.2195 0
M  V30 4 O  18.5771 37.6980 84.3126 0
M  V30 5 C  20.8664 37.6061 84.9762 0
M  V30 6 C  21.2591 36.5634 84.1298 0
M  V30 7 C  21.8588 38.4129 85.5612 0
M  V30 8 C  23.2127 38.1892 85.2864 0
M  V30 9 C  23.5900 37.1364 84.4438 0
M  V30 10 C  22.6110 36.3330 83.9021 0
M  V30 11 C  24.8747 36.6739 83.8837 0
M  V30 12 C  24.5345 35.5088 83.0677 0
M  V30 13 O  25.2826 34.7566 82.4436 0
M  V30 14 N  23.2015 35.3818 83.1113 0
M  V30 15 C  26.1491 37.1528 83.9881 0
M  V30 16 C  26.4377 38.3189 84.8489 0
M  V30 17 C  26.4364 38.1763 86.2421 0
M  V30 18 C  26.7356 39.2657 87.0559 0
M  V30 19 C  27.0285 40.4985 86.4760 0
M  V30 20 C  27.0238 40.6529 85.0908 0
M  V30 21 C  26.7318 39.5619 84.2765 0
M  V30 22 N  27.2399 36.6162 83.2956 0
M  V30 23 C  28.6435 36.7399 83.3763 0
M  V30 24 C  29.3813 36.0012 82.4434 0
M  V30 25 C  30.7748 36.0333 82.4423 0
M  V30 26 C  31.4553 36.8051 83.3815 0
M  V30 27 C  30.7415 37.5452 84.3271 0
M  V30 28 C  29.3446 37.4987 84.3269 0
M  V30 29 C  31.4749 38.3504 85.3902 0
M  V30 30 N  31.9567 39.7359 84.9050 0 CHG=1
M  V30 31 C  30.8018 40.6456 84.4330 0
M  V30 32 C  32.8115 40.4439 85.9782 0
M  V30 33 H  17.6829 38.7549 87.9398 0
M  V30 34 H  17.1784 39.0895 86.2819 0
M  V30 35 H  17.1324 37.4318 86.9054 0
M  V30 36 H  19.7904 38.2364 87.1732 0
M  V30 37 H  20.5127 35.9564 83.6434 0
M  V30 38 H  21.5899 39.2426 86.2000 0
M  V30 39 H  23.9384 38.8629 85.7128 0
M  V30 40 H  22.7045 34.6424 82.6308 0
M  V30 41 H  26.2069 37.2199 86.6899 0
M  V30 42 H  26.7386 39.1561 88.1307 0
M  V30 43 H  27.2565 41.3455 87.1073 0
M  V30 44 H  27.2444 41.6150 84.6515 0
M  V30 45 H  26.7311 39.6798 83.2025 0
M  V30 46 H  26.9769 35.9313 82.5960 0
M  V30 47 H  28.8830 35.3906 81.7027 0
M  V30 48 H  31.3225 35.4544 81.7113 0
M  V30 49 H  32.5359 36.8145 83.3769 0
M  V30 50 H  28.8412 38.0510 85.0985 0
M  V30 51 H  32.3718 37.8241 85.7242 0
M  V30 52 H  30.8491 38.5438 86.2654 0
M  V30 53 H  30.1539 40.8501 85.2872 0
M  V30 54 H  30.2641 40.1300 83.6368 0
M  V30 55 H  31.2542 41.5566 84.0443 0
M  V30 56 H  32.1850 40.6035 86.8581 0
M  V30 57 H  33.6590 39.7960 86.2079 0
M  V30 58 H  33.1540 41.3914 85.5575 0
M  V30 59 H  32.5491 39.5711 84.1005 0
M  V30 END ATOM
M  V30 BEGIN BOND
M  V30 1 1 1 2
M  V30 2 1 1 33
M  V30 3 1 1 34
M  V30 4 1 1 35
M  V30 5 1 2 3
M  V30 6 1 2 36
M  V30 7 2 3 4
M  V30 8 1 3 5
M  V30 9 2 5 6
M  V30 10 1 5 7
M  V30 11 1 6 10
M  V30 12 1 6 37
M  V30 13 2 7 8
M  V30 14 1 7 38
M  V30 15 1 8 9
M  V30 16 1 8 39
M  V30 17 2 9 10
M  V30 18 1 9 11
M  V30 19 1 10 14
M  V30 20 1 11 12
M  V30 21 2 11 15
M  V30 22 2 12 13
M  V30 23 1 12 14
M  V30 24 1 14 40
M  V30 25 1 15 16
M  V30 26 1 15 22
M  V30 27 2 16 17
M  V30 28 1 16 21
M  V30 29 1 17 18
M  V30 30 1 17 41
M  V30 31 2 18 19
M  V30 32 1 18 42
M  V30 33 1 19 20
M  V30 34 1 19 43
M  V30 35 2 20 21
M  V30 36 1 20 44
M  V30 37 1 21 45
M  V30 38 1 22 23
M  V30 39 1 22 46
M  V30 40 2 23 24
M  V30 41 1 23 28
M  V30 42 1 24 25
M  V30 43 1 24 47
M  V30 44 2 25 26
M  V30 45 1 25 48
M  V30 46 1 26 27
M  V30 47 1 26 49
M  V30 48 2 27 28
M  V30 49 1 27 29
M  V30 50 1 28 50
M  V30 51 1 29 30
M  V30 52 1 29 51
M  V30 53 1 29 52
M  V30 54 1 30 31
M  V30 55 1 30 32
M  V30 56 1 30 59
M  V30 57 1 31 53
M  V30 58 1 31 54
M  V30 59 1 31 55
M  V30 60 1 32 56
M  V30 61 1 32 57
M  V30 62 1 32 58
M  V30 END BOND
M  V30 END CTAB
M  END
> <s_m_entry_id>
240

> <s_m_entry_name>
result.4066

> <s_m_Source_Path>
D:\OneDrive - zju.edu.cn\DOC\A-Finished\LCK_VS\Planet\LCK-8617

> <s_m_Source_File>
glide-dock_SP_top1262_2_pv.maegz

> <i_m_Source_File_Index>
240

> <PLANET_affinity>
7.753

> <i_lp_mmshare_version>
54117

> <i_f3d_flags>
0

> <s_epik_input>
W0NIM11bTkhdQyg9TyljKFtjSF1bY0hdMSlbY0hdYyhjMTIpW05IXUMoPU8pQ1wyPUMoXGMzW2NIXVtjSF1bY0hdW2NIXVtjSF0zKVtOSF1jNFtjSF1bY0hdW2NIXWMoW2NIXTQpW0NIMl1OKFtDSDNdKVtDSDNd

> <s_epik_cmdline>
J2VwaWtfcHl0aG9uJywgJy1waCcsICc3LjAnLCAnLXRuJywgJzgnLCAnLW1hJywgJzUwMCcsICctaW1hZScsICc8aW5maWxlLm1hZT4nLCAnLW9tYWUnLCAnPG91dGZpbGUubWFlPic=

> <r_epik_Ionization_Penalty>
  0.0515

> <r_epik_Ionization_Penalty_Charging>
  0.0513

> <r_epik_Ionization_Penalty_Neutral>
  0.0002

> <r_epik_State_Penalty>
  0.4546

> <r_epik_Charging_Adjusted_Penalty>
0.50597

> <i_epik_Tot_Q>
1

> <i_epik_Tot_abs_Q>
1

> <s_lp_Force_Field>
S-OPLS

> <r_lp_Energy>
59.5388

> <b_lp_Chiralities_Consistent>
1

> <s_lp_Variant>
O=C(C1=CC(NC/2=O)=C(C=C1)C2=C(NC3=CC=CC(CN(C)C)=C3)/C4=CC=CC=C4)NC-1

> <s_i_glide_gridfile>
glide-grid_1

> <i_i_glide_lignum>
1564

> <i_i_glide_rotatable_bonds>
7

> <r_i_docking_score>
-8.50277158238872

> <r_i_glide_ligand_efficiency>
-0.265711611949647

> <r_i_glide_ligand_efficiency_sa>
-0.843581783683529

> <r_i_glide_ligand_efficiency_ln>
-1.90400233409639

> <r_i_glide_gscore>
-8.95737158238872

> <r_i_glide_lipo>
-2.95561486922319

> <r_i_glide_hbond>
-0.543186527124856

> <r_i_glide_metal>
0

> <r_i_glide_rewards>
-2.05385672947874

> <r_i_glide_evdw>
-44.5573234558105

> <r_i_glide_ecoul>
-10.3804903030396

> <r_i_glide_erotb>
0.380226261684533

> <r_i_glide_esite>
0

> <r_i_glide_emodel>
-86.8302305040409

> <r_i_glide_energy>
-54.9378137588501

> <r_i_glide_einternal>
5.53746461868286

> <i_i_glide_confnum>
53

> <i_i_glide_posenum>
386

> <r_i_glide_eff_state_penalty>
0.4546

> <r_lp_tautomer_probability>
0.5

> <s_m_subgroup_title>
glide-dock_SP_top1262_2_pv

> <s_m_subgroupid>
glide-dock_SP_top1262_2_pv

> <b_m_subgroup_collapsed>
0

$$$$
O=C(O)[C@@H]1N(CC2=CC(Cl)=C(OCC3=CC=CC(C4=CC=C(OCCO5)C5=C4)=C3C)C=C2OCC6=CC=C...
                    3D
 Schrodinger Suite 2021-3.
  0  0  0     0  0            999 V3000
M  V30 BEGIN CTAB
M  V30 COUNTS 79 84 0 0 0
M  V30 BEGIN ATOM
M  V30 1 N  33.6640 30.4253 82.8620 0
M  V30 2 C  33.6824 31.5647 82.6514 0
M  V30 3 C  33.6935 32.9950 82.3711 0
M  V30 4 C  32.9943 33.8947 83.1869 0
M  V30 5 C  34.3745 33.4677 81.2465 0
M  V30 6 C  34.3523 34.8261 80.9391 0
M  V30 7 C  33.6404 35.7139 81.7438 0
M  V30 8 C  32.9408 35.2572 82.8667 0
M  V30 9 C  32.1078 36.2019 83.7335 0
M  V30 10 O  31.9719 37.4917 83.1233 0
M  V30 11 C  30.8605 38.2700 83.3851 0
M  V30 12 C  29.5619 37.7441 83.4651 0
M  V30 13 C  28.4424 38.5769 83.6434 0
M  V30 14 C  28.6519 39.9554 83.7672 0
M  V30 15 Cl 27.3160 41.0253 84.0191 0
M  V30 16 C  29.9381 40.4885 83.6962 0
M  V30 17 C  31.0404 39.6584 83.4836 0
M  V30 18 C  32.4411 40.2684 83.4102 0
M  V30 19 N  32.8787 40.7162 81.9889 0 CHG=1 CFG=1
M  V30 20 C  34.2854 41.3510 81.7370 0 CFG=1
M  V30 21 C  35.4710 40.6462 82.4741 0
M  V30 22 O  36.5344 41.3035 82.5220 0
M  V30 23 O  35.3663 39.4759 82.9115 0 CHG=-1
M  V30 24 C  32.7242 39.6990 80.8500 0
M  V30 25 C  33.2901 40.4385 79.6426 0 CFG=2
M  V30 26 O  33.6832 39.6180 78.5682 0
M  V30 27 C  34.3852 41.3568 80.1885 0
M  V30 28 O  27.1344 38.1233 83.6712 0
M  V30 29 C  26.8694 36.7990 84.1249 0
M  V30 30 C  25.4188 36.4079 83.8367 0
M  V30 31 C  25.1756 35.5787 82.7368 0
M  V30 32 C  23.8848 35.1569 82.4434 0
M  V30 33 C  22.8257 35.5544 83.2446 0
M  V30 34 C  23.0321 36.3615 84.3668 0
M  V30 35 C  24.3432 36.8082 84.6613 0
M  V30 36 C  24.6094 37.7400 85.8432 0
M  V30 37 C  21.8398 36.6620 85.2048 0
M  V30 38 C  21.7313 36.1171 86.4909 0
M  V30 39 C  20.5690 36.2843 87.2438 0
M  V30 40 C  20.7674 37.4046 84.6879 0
M  V30 41 C  19.6140 37.6023 85.4503 0
M  V30 42 C  19.5124 37.0245 86.7264 0
M  V30 43 O  18.5650 38.2969 84.8756 0
M  V30 44 C  17.5878 38.7481 85.8227 0
M  V30 45 C  17.2360 37.6217 86.8244 0
M  V30 46 O  18.4059 37.1983 87.5325 0
M  V30 47 H  32.4564 33.5330 84.0532 0
M  V30 48 H  34.9120 32.7913 80.5954 0
M  V30 49 H  34.8773 35.1908 80.0677 0
M  V30 50 H  33.6312 36.7566 81.4772 0
M  V30 51 H  32.6141 36.3306 84.6909 0
M  V30 52 H  31.1585 35.7127 83.9389 0
M  V30 53 H  29.4272 36.6891 83.3068 0
M  V30 54 H  30.0795 41.5568 83.7984 0
M  V30 55 H  33.1598 39.5570 83.8054 0
M  V30 56 H  32.5186 41.1839 83.9983 0
M  V30 57 H  34.1452 42.3558 82.1355 0
M  V30 58 H  31.6833 39.3964 80.7612 0
M  V30 59 H  33.3076 38.8297 81.1435 0
M  V30 60 H  32.4941 41.0910 79.2753 0
M  V30 61 H  32.8992 39.1565 78.2548 0
M  V30 62 H  34.3178 42.3566 79.7634 0
M  V30 63 H  35.3621 40.9750 79.8829 0
M  V30 64 H  27.5092 36.0594 83.6446 0
M  V30 65 H  27.0754 36.7567 85.1946 0
M  V30 66 H  25.9898 35.2630 82.1001 0
M  V30 67 H  23.6831 34.5213 81.5967 0
M  V30 68 H  21.8336 35.2001 83.0005 0
M  V30 69 H  23.7027 38.1576 86.2797 0
M  V30 70 H  25.1734 37.2219 86.6185 0
M  V30 71 H  25.2080 38.5921 85.5212 0
M  V30 72 H  22.5435 35.5369 86.9009 0
M  V30 73 H  20.4757 35.8299 88.2161 0
M  V30 74 H  20.8212 37.8168 83.6907 0
M  V30 75 H  16.6954 39.0925 85.3008 0
M  V30 76 H  17.9983 39.5886 86.3820 0
M  V30 77 H  16.8216 36.7726 86.2788 0
M  V30 78 H  16.4828 37.9553 87.5372 0
M  V30 79 H  32.2164 41.4511 81.7785 0
M  V30 END ATOM
M  V30 BEGIN BOND
M  V30 1 3 1 2
M  V30 2 1 2 3
M  V30 3 2 3 4
M  V30 4 1 3 5
M  V30 5 1 4 8
M  V30 6 1 4 47
M  V30 7 2 5 6
M  V30 8 1 5 48
M  V30 9 1 6 7
M  V30 10 1 6 49
M  V30 11 2 7 8
M  V30 12 1 7 50
M  V30 13 1 8 9
M  V30 14 1 9 10
M  V30 15 1 9 51
M  V30 16 1 9 52
M  V30 17 1 10 11
M  V30 18 2 11 12
M  V30 19 1 11 17
M  V30 20 1 12 13
M  V30 21 1 12 53
M  V30 22 2 13 14
M  V30 23 1 13 28
M  V30 24 1 14 15
M  V30 25 1 14 16
M  V30 26 2 16 17
M  V30 27 1 16 54
M  V30 28 1 17 18
M  V30 29 1 18 19
M  V30 30 1 18 55
M  V30 31 1 18 56
M  V30 32 1 19 20
M  V30 33 1 19 24
M  V30 34 1 19 79
M  V30 35 1 20 21
M  V30 36 1 20 27
M  V30 37 1 20 57
M  V30 38 2 21 22
M  V30 39 1 21 23
M  V30 40 1 24 25
M  V30 41 1 24 58
M  V30 42 1 24 59
M  V30 43 1 25 26
M  V30 44 1 25 27
M  V30 45 1 25 60
M  V30 46 1 26 61
M  V30 47 1 27 62
M  V30 48 1 27 63
M  V30 49 1 28 29
M  V30 50 1 29 30
M  V30 51 1 29 64
M  V30 52 1 29 65
M  V30 53 2 30 31
M  V30 54 1 30 35
M  V30 55 1 31 32
M  V30 56 1 31 66
M  V30 57 2 32 33
M  V30 58 1 32 67
M  V30 59 1 33 34
M  V30 60 1 33 68
M  V30 61 2 34 35
M  V30 62 1 34 37
M  V30 63 1 35 36
M  V30 64 1 36 69
M  V30 65 1 36 70
M  V30 66 1 36 71
M  V30 67 2 37 38
M  V30 68 1 37 40
M  V30 69 1 38 39
M  V30 70 1 38 72
M  V30 71 2 39 42
M  V30 72 1 39 73
M  V30 73 2 40 41
M  V30 74 1 40 74
M  V30 75 1 41 42
M  V30 76 1 41 43
M  V30 77 1 42 46
M  V30 78 1 43 44
M  V30 79 1 44 45
M  V30 80 1 44 75
M  V30 81 1 44 76
M  V30 82 1 45 46
M  V30 83 1 45 77
M  V30 84 1 45 78
M  V30 END BOND
M  V30 END CTAB
M  END
> <s_m_entry_id>
241

> <s_m_entry_name>
result.937

> <s_m_Source_Path>
D:\OneDrive - zju.edu.cn\DOC\A-Finished\LCK_VS\Planet\LCK-8617

> <s_m_Source_File>
glide-dock_SP_top1262_2_pv.maegz

> <i_m_Source_File_Index>
241

> <PLANET_affinity>
7.412

> <i_lp_mmshare_version>
54117

> <i_f3d_flags>
0

> <s_epik_input>
TiNDYzFbY0hdYyhbY0hdW2NIXVtjSF0xKVtDSDJdT2MyW2NIXWMoYyhDbClbY0hdYzJbQ0gyXU4zW0NAQEhdKEMoPU8pW09IXSlbQ0gyXVtDQEhdKFtDSDJdMylbT0hdKU9bQ0gyXWM0W2NIXVtjSF1bY0hdYyhjNFtDSDNdKS1jKFtjSF01KVtjSF1bY0hdYyhjNTYpT1tDSDJdW0NIMl1PNg==

> <s_epik_cmdline>
J2VwaWtfcHl0aG9uJywgJy1waCcsICc3LjAnLCAnLXRuJywgJzgnLCAnLW1hJywgJzUwMCcsICctaW1hZScsICc8aW5maWxlLm1hZT4nLCAnLW9tYWUnLCAnPG91dGZpbGUubWFlPic=

> <r_epik_Ionization_Penalty>
  0.0116

> <r_epik_Ionization_Penalty_Charging>
  0.0116

> <r_epik_Ionization_Penalty_Neutral>
  0.0000

> <r_epik_State_Penalty>
  0.0085

> <r_epik_Charging_Adjusted_Penalty>
0.0200502

> <i_epik_Tot_Q>
0

> <i_epik_Tot_abs_Q>
2

> <s_lp_Force_Field>
S-OPLS

> <r_lp_Energy>
72.6159

> <b_lp_Chiralities_Consistent>
1

> <s_lp_Variant>
O=C(O)[C@@H]1N(CC2=CC(Cl)=C(OCC3=CC=CC(C4=CC=C(OCCO5)C5=C4)=C3C)C=C2OCC6=CC=C...-2

> <s_i_glide_gridfile>
glide-grid_1

> <i_i_glide_lignum>
2073

> <i_i_glide_rotatable_bonds>
11

> <r_i_docking_score>
-8.5001882399895

> <r_i_glide_ligand_efficiency>
-0.184786700869337

> <r_i_glide_ligand_efficiency_sa>
-0.662099594296958

> <r_i_glide_ligand_efficiency_ln>
-1.76036850576023

> <r_i_glide_gscore>
-8.5086882399895

> <r_i_glide_lipo>
-4.30227866673294

> <r_i_glide_hbond>
-0.292322459494849

> <r_i_glide_metal>
0

> <r_i_glide_rewards>
-0.150268229647238

> <r_i_glide_evdw>
-58.3567047119141

> <r_i_glide_ecoul>
-7.70468950271606

> <r_i_glide_erotb>
0.318556927117126

> <r_i_glide_esite>
-0.0088371502284882

> <r_i_glide_emodel>
-97.5503913125656

> <r_i_glide_energy>
-66.0613942146301

> <r_i_glide_einternal>
5.25542497634888

> <i_i_glide_confnum>
387

> <i_i_glide_posenum>
269

> <r_i_glide_eff_state_penalty>
0.0085

> <r_lp_tautomer_probability>
1

> <s_m_subgroup_title>
glide-dock_SP_top1262_2_pv

> <s_m_subgroupid>
glide-dock_SP_top1262_2_pv

> <b_m_subgroup_collapsed>
0

$$$$
CN1CCC(COC2=CC3=NC=NC(NC4=CC(OC)=CC=C4Cl)=C3C=C2OC)CC1
                    3D
 Schrodinger Suite 2021-3.
  0  0  0     0  0            999 V3000
M  V30 BEGIN CTAB
M  V30 COUNTS 59 62 0 0 0
M  V30 BEGIN ATOM
M  V30 1 C  33.8257 33.7151 83.1841 0
M  V30 2 N  33.3399 35.1591 82.9332 0 CHG=1 CFG=2
M  V30 3 C  32.5263 35.6538 84.1481 0
M  V30 4 C  32.0761 37.1064 83.8906 0
M  V30 5 C  31.2328 37.2439 82.5978 0 CFG=1
M  V30 6 C  32.0544 36.6927 81.4108 0
M  V30 7 C  32.4977 35.2315 81.6374 0
M  V30 8 C  29.8125 36.6264 82.6978 0
M  V30 9 O  29.1108 37.3408 83.7112 0
M  V30 10 C  27.7486 37.1754 83.8929 0
M  V30 11 C  26.9516 36.3376 83.0988 0
M  V30 12 C  27.1740 37.9019 84.9459 0
M  V30 13 O  28.0218 38.7207 85.6732 0
M  V30 14 C  27.5240 39.4465 86.7924 0
M  V30 15 C  25.8040 37.7784 85.2210 0
M  V30 16 C  24.9758 36.9374 84.4291 0
M  V30 17 C  25.5668 36.2134 83.3475 0
M  V30 18 C  23.5682 36.7562 84.6099 0
M  V30 19 N  22.8335 35.9549 83.7981 0
M  V30 20 C  23.4986 35.3332 82.8009 0
M  V30 21 N  24.8236 35.4098 82.5325 0
M  V30 22 N  22.8708 37.4365 85.6223 0
M  V30 23 C  21.5086 37.3457 85.9488 0
M  V30 24 C  20.6102 38.2251 85.3385 0
M  V30 25 C  19.2435 38.1757 85.6190 0
M  V30 26 O  18.4240 39.0475 84.9232 0
M  V30 27 C  17.0126 38.9475 85.0953 0
M  V30 28 C  18.7915 37.2494 86.5756 0
M  V30 29 C  19.6820 36.3697 87.1926 0
M  V30 30 C  21.0371 36.4018 86.8734 0
M  V30 31 Cl 22.0829 35.2547 87.6431 0
M  V30 32 H  32.9513 33.0691 83.3022 0
M  V30 33 H  34.4260 33.4151 82.3228 0
M  V30 34 H  34.4352 33.7196 84.0914 0
M  V30 35 H  31.6830 34.9686 84.2382 0
M  V30 36 H  33.1663 35.5713 85.0302 0
M  V30 37 H  31.5030 37.4629 84.7493 0
M  V30 38 H  32.9541 37.7548 83.8327 0
M  V30 39 H  31.1086 38.3126 82.4244 0
M  V30 40 H  32.9322 37.3192 81.2404 0
M  V30 41 H  31.4679 36.7562 80.4916 0
M  V30 42 H  31.6503 34.5486 81.7411 0
M  V30 43 H  33.1278 34.8740 80.8204 0
M  V30 44 H  29.3101 36.7371 81.7343 0
M  V30 45 H  29.8384 35.5614 82.9359 0
M  V30 46 H  27.3717 35.7727 82.2809 0
M  V30 47 H  28.3384 40.0087 87.2481 0
M  V30 48 H  26.7568 40.1618 86.4920 0
M  V30 49 H  27.1188 38.7798 87.5559 0
M  V30 50 H  25.3523 38.3266 86.0320 0
M  V30 51 H  22.8919 34.7566 82.1191 0
M  V30 52 H  23.4225 38.0459 86.2088 0
M  V30 53 H  20.9735 38.9434 84.6165 0
M  V30 54 H  16.4899 39.6594 84.4559 0
M  V30 55 H  16.6578 37.9569 84.8240 0
M  V30 56 H  16.7192 39.1575 86.1204 0
M  V30 57 H  17.7477 37.1865 86.8389 0
M  V30 58 H  19.3145 35.6489 87.9113 0
M  V30 59 H  34.1402 35.7689 82.8206 0
M  V30 END ATOM
M  V30 BEGIN BOND
M  V30 1 1 1 2
M  V30 2 1 1 32
M  V30 3 1 1 33
M  V30 4 1 1 34
M  V30 5 1 2 3
M  V30 6 1 2 7
M  V30 7 1 2 59
M  V30 8 1 3 4
M  V30 9 1 3 35
M  V30 10 1 3 36
M  V30 11 1 4 5
M  V30 12 1 4 37
M  V30 13 1 4 38
M  V30 14 1 5 6
M  V30 15 1 5 8
M  V30 16 1 5 39
M  V30 17 1 6 7
M  V30 18 1 6 40
M  V30 19 1 6 41
M  V30 20 1 7 42
M  V30 21 1 7 43
M  V30 22 1 8 9
M  V30 23 1 8 44
M  V30 24 1 8 45
M  V30 25 1 9 10
M  V30 26 2 10 11
M  V30 27 1 10 12
M  V30 28 1 11 17
M  V30 29 1 11 46
M  V30 30 1 12 13
M  V30 31 2 12 15
M  V30 32 1 13 14
M  V30 33 1 14 47
M  V30 34 1 14 48
M  V30 35 1 14 49
M  V30 36 1 15 16
M  V30 37 1 15 50
M  V30 38 2 16 17
M  V30 39 1 16 18
M  V30 40 1 17 21
M  V30 41 2 18 19
M  V30 42 1 18 22
M  V30 43 1 19 20
M  V30 44 2 20 21
M  V30 45 1 20 51
M  V30 46 1 22 23
M  V30 47 1 22 52
M  V30 48 2 23 24
M  V30 49 1 23 30
M  V30 50 1 24 25
M  V30 51 1 24 53
M  V30 52 1 25 26
M  V30 53 2 25 28
M  V30 54 1 26 27
M  V30 55 1 27 54
M  V30 56 1 27 55
M  V30 57 1 27 56
M  V30 58 1 28 29
M  V30 59 1 28 57
M  V30 60 2 29 30
M  V30 61 1 29 58
M  V30 62 1 30 31
M  V30 END BOND
M  V30 END CTAB
M  END
> <s_m_entry_id>
242

> <s_m_entry_name>
result.875

> <s_m_Source_Path>
D:\OneDrive - zju.edu.cn\DOC\A-Finished\LCK_VS\Planet\LCK-8617

> <s_m_Source_File>
glide-dock_SP_top1262_2_pv.maegz

> <i_m_Source_File_Index>
242

> <PLANET_affinity>
7.282

> <i_lp_mmshare_version>
54117

> <i_f3d_flags>
0

> <s_epik_input>
W0NIM11OMVtDSDJdW0NIMl1bQ0hdKFtDSDJdW0NIMl0xKVtDSDJdT2MoYyhbY0hdMilPW0NIM10pW2NIXWMoYzIzKW5bY0hdbmMzW05IXWM0W2NIXWMoT1tDSDNdKVtjSF1bY0hdYzRDbA==

> <s_epik_cmdline>
J2VwaWtfcHl0aG9uJywgJy1waCcsICc3LjAnLCAnLXRuJywgJzgnLCAnLW1hJywgJzUwMCcsICctaW1hZScsICc8aW5maWxlLm1hZT4nLCAnLW9tYWUnLCAnPG91dGZpbGUubWFlPic=

> <r_epik_Ionization_Penalty>
  0.0038

> <r_epik_Ionization_Penalty_Charging>
  0.0015

> <r_epik_Ionization_Penalty_Neutral>
  0.0022

> <r_epik_State_Penalty>
  0.0000

> <r_epik_Charging_Adjusted_Penalty>
0.00154336

> <i_epik_Tot_Q>
1

> <i_epik_Tot_abs_Q>
1

> <s_lp_Force_Field>
S-OPLS

> <r_lp_Energy>
58.7295

> <b_lp_Chiralities_Consistent>
1

> <s_lp_Variant>
CN1CCC(COC2=CC3=NC=NC(NC4=CC(OC)=CC=C4Cl)=C3C=C2OC)CC1-2

> <s_i_glide_gridfile>
glide-grid_1

> <i_i_glide_lignum>
2270

> <i_i_glide_rotatable_bonds>
7

> <r_i_docking_score>
-8.49779108378856

> <r_i_glide_ligand_efficiency>
-0.274122293025437

> <r_i_glide_ligand_efficiency_sa>
-0.861122466713578

> <r_i_glide_ligand_efficiency_ln>
-1.91651231541506

> <r_i_glide_gscore>
-8.49779108378856

> <r_i_glide_lipo>
-3.49011624106578

> <r_i_glide_hbond>
-0.306309585708195

> <r_i_glide_metal>
0

> <r_i_glide_rewards>
-1.71684980800321

> <r_i_glide_evdw>
-44.9545249938965

> <r_i_glide_ecoul>
-8.2938117980957

> <r_i_glide_erotb>
0.50728257039781

> <r_i_glide_esite>
0

> <r_i_glide_emodel>
-83.0615187827051

> <r_i_glide_energy>
-53.2483367919922

> <r_i_glide_einternal>
3.95565915107727

> <i_i_glide_confnum>
24

> <i_i_glide_posenum>
198

> <r_i_glide_eff_state_penalty>
0

> <r_lp_tautomer_probability>
1

> <s_m_subgroup_title>
glide-dock_SP_top1262_2_pv

> <s_m_subgroupid>
glide-dock_SP_top1262_2_pv

> <b_m_subgroup_collapsed>
0

$$$$
C=CC(NC1=CC2=C(NC3=CC(Cl)=C(F)C=C3)N=CN=C2C=C1OC)=O
                    3D
 Schrodinger Suite 2021-3.
  0  0  0     0  0            999 V3000
M  V30 BEGIN CTAB
M  V30 COUNTS 40 42 0 0 0
M  V30 BEGIN ATOM
M  V30 1 C  29.7871 40.7019 86.4206 0
M  V30 2 C  29.5687 40.7362 85.0891 0
M  V30 3 C  28.6561 39.8787 84.3643 0
M  V30 4 O  28.2523 40.2011 83.2443 0
M  V30 5 N  28.2959 38.7329 84.9857 0
M  V30 6 C  27.4558 37.7697 84.4139 0
M  V30 7 C  26.1155 37.7389 84.8141 0
M  V30 8 C  27.9576 36.8703 83.4583 0
M  V30 9 O  29.3093 36.9170 83.1567 0
M  V30 10 C  29.8638 35.9676 82.2478 0
M  V30 11 C  27.0728 35.9778 82.8433 0
M  V30 12 C  25.7006 35.9809 83.1614 0
M  V30 13 C  25.2056 36.8482 84.1839 0
M  V30 14 N  24.8817 35.1672 82.4435 0
M  V30 15 C  23.5648 35.2354 82.7318 0
M  V30 16 N  22.9878 35.9565 83.7086 0
M  V30 17 C  23.7996 36.7557 84.4441 0
M  V30 18 N  23.1691 37.4916 85.4655 0
M  V30 19 C  21.7901 37.5713 85.7287 0
M  V30 20 C  20.8847 37.9284 84.7212 0
M  V30 21 C  19.5107 37.9384 84.9675 0
M  V30 22 Cl 18.4185 38.3578 83.6937 0
M  V30 23 C  19.0327 37.5932 86.2348 0
M  V30 24 F  17.7038 37.5769 86.4895 0
M  V30 25 C  19.9314 37.2524 87.2461 0
M  V30 26 C  21.3063 37.2511 86.9990 0
M  V30 27 H  29.2948 40.0060 87.0854 0
M  V30 28 H  30.4836 41.3935 86.8722 0
M  V30 29 H  30.0808 41.4670 84.4773 0
M  V30 30 H  28.6760 38.5386 85.8980 0
M  V30 31 H  25.7560 38.4317 85.5606 0
M  V30 32 H  30.9372 36.1349 82.1613 0
M  V30 33 H  29.7185 34.9442 82.5973 0
M  V30 34 H  29.4379 36.0661 81.2482 0
M  V30 35 H  27.4096 35.2953 82.0770 0
M  V30 36 H  22.8841 34.7566 82.0518 0
M  V30 37 H  23.7671 38.0640 86.0403 0
M  V30 38 H  21.2501 38.1739 83.7357 0
M  V30 39 H  19.5566 36.9774 88.2208 0
M  V30 40 H  21.9898 36.9669 87.7856 0
M  V30 END ATOM
M  V30 BEGIN BOND
M  V30 1 2 1 2
M  V30 2 1 1 27
M  V30 3 1 1 28
M  V30 4 1 2 3
M  V30 5 1 2 29
M  V30 6 2 3 4
M  V30 7 1 3 5
M  V30 8 1 5 6
M  V30 9 1 5 30
M  V30 10 2 6 7
M  V30 11 1 6 8
M  V30 12 1 7 13
M  V30 13 1 7 31
M  V30 14 1 8 9
M  V30 15 2 8 11
M  V30 16 1 9 10
M  V30 17 1 10 32
M  V30 18 1 10 33
M  V30 19 1 10 34
M  V30 20 1 11 12
M  V30 21 1 11 35
M  V30 22 2 12 13
M  V30 23 1 12 14
M  V30 24 1 13 17
M  V30 25 2 14 15
M  V30 26 1 15 16
M  V30 27 1 15 36
M  V30 28 2 16 17
M  V30 29 1 17 18
M  V30 30 1 18 19
M  V30 31 1 18 37
M  V30 32 2 19 20
M  V30 33 1 19 26
M  V30 34 1 20 21
M  V30 35 1 20 38
M  V30 36 1 21 22
M  V30 37 2 21 23
M  V30 38 1 23 24
M  V30 39 1 23 25
M  V30 40 2 25 26
M  V30 41 1 25 39
M  V30 42 1 26 40
M  V30 END BOND
M  V30 END CTAB
M  END
> <s_m_entry_id>
249

> <s_m_entry_name>
result.776

> <s_m_Source_Path>
D:\OneDrive - zju.edu.cn\DOC\A-Finished\LCK_VS\Planet\LCK-8617

> <s_m_Source_File>
glide-dock_SP_top1262_2_pv.maegz

> <i_m_Source_File_Index>
249

> <PLANET_affinity>
7.059

> <i_lp_mmshare_version>
54117

> <i_f3d_flags>
0

> <s_epik_input>
W0NIMl09W0NIXUMoPU8pW05IXWMoYyhbY0hdMSlPW0NIM10pW2NIXWMoYzEyKWMobltjSF1uMilbTkhdYzNbY0hdYyhDbCljKEYpW2NIXVtjSF0z

> <s_epik_cmdline>
J2VwaWtfcHl0aG9uJywgJy1waCcsICc3LjAnLCAnLXRuJywgJzgnLCAnLW1hJywgJzUwMCcsICctaW1hZScsICc8aW5maWxlLm1hZT4nLCAnLW9tYWUnLCAnPG91dGZpbGUubWFlPic=

> <r_epik_Ionization_Penalty>
  0.0024

> <r_epik_Ionization_Penalty_Charging>
  0.0000

> <r_epik_Ionization_Penalty_Neutral>
  0.0024

> <r_epik_State_Penalty>
  0.0000

> <r_epik_Charging_Adjusted_Penalty>
0

> <i_epik_Tot_Q>
0

> <i_epik_Tot_abs_Q>
0

> <s_lp_Force_Field>
S-OPLS

> <r_lp_Energy>
41.4551

> <b_lp_Chiralities_Consistent>
1

> <s_lp_Variant>
C=CC(NC1=CC2=C(NC3=CC(Cl)=C(F)C=C3)N=CN=C2C=C1OC)=O-1

> <s_i_glide_gridfile>
glide-grid_1

> <i_i_glide_lignum>
2596

> <i_i_glide_rotatable_bonds>
6

> <r_i_docking_score>
-8.48202689017316

> <r_i_glide_ligand_efficiency>
-0.326231803468198

> <r_i_glide_ligand_efficiency_sa>
-0.966460434114376

> <r_i_glide_ligand_efficiency_ln>
-1.99197618335688

> <r_i_glide_gscore>
-8.48202689017316

> <r_i_glide_lipo>
-3.06148522926221

> <r_i_glide_hbond>
-0.468780662019502

> <r_i_glide_metal>
0

> <r_i_glide_rewards>
-2.320072000642

> <r_i_glide_evdw>
-41.9265480041504

> <r_i_glide_ecoul>
-8.2028226852417

> <r_i_glide_erotb>
0.695061804744332

> <r_i_glide_esite>
0

> <r_i_glide_emodel>
-70.6336302019489

> <r_i_glide_energy>
-50.1293706893921

> <r_i_glide_einternal>
8.93589305877686

> <i_i_glide_confnum>
42

> <i_i_glide_posenum>
134

> <r_i_glide_eff_state_penalty>
0

> <r_lp_tautomer_probability>
1

> <s_m_subgroup_title>
glide-dock_SP_top1262_2_pv

> <s_m_subgroupid>
glide-dock_SP_top1262_2_pv

> <b_m_subgroup_collapsed>
0

$$$$
O=C1C2=CC(OC3=CC=CC=C3)=C(C=C2OC=C1NC([H])=O)NS(=O)(C)=O
                    3D
 Schrodinger Suite 2021-3.
  0  0  0     0  0            999 V3000
M  V30 BEGIN CTAB
M  V30 COUNTS 40 42 0 0 0
M  V30 BEGIN ATOM
M  V30 1 O  29.8860 36.5894 83.2346 0
M  V30 2 C  29.1972 35.9338 82.4536 0
M  V30 3 N  27.8452 35.8723 82.4436 0
M  V30 4 C  26.9297 36.5154 83.2537 0
M  V30 5 C  25.5603 35.9575 83.2547 0
M  V30 6 O  25.1914 35.0028 82.5644 0
M  V30 7 C  27.2199 37.6124 83.9957 0
M  V30 8 O  26.3519 38.2739 84.7968 0
M  V30 9 C  25.0809 37.7643 84.9359 0
M  V30 10 C  24.6338 36.6471 84.2159 0
M  V30 11 C  24.2644 38.4026 85.8627 0
M  V30 12 C  22.9765 37.9291 86.1060 0
M  V30 13 N  22.2226 38.5005 87.1363 0
M  V30 14 S  21.4835 40.0975 86.9697 0
M  V30 15 O  21.1146 40.2661 85.5610 0
M  V30 16 O  20.4829 40.1834 88.0391 0
M  V30 17 C  22.8844 41.2781 87.3781 0
M  V30 18 C  22.4959 36.8180 85.3877 0
M  V30 19 C  23.3228 36.1970 84.4429 0
M  V30 20 O  21.2583 36.2585 85.6326 0
M  V30 21 C  20.1182 37.0115 85.4650 0
M  V30 22 C  19.2458 37.1568 86.5453 0
M  V30 23 C  18.0771 37.9015 86.4016 0
M  V30 24 C  17.7723 38.4734 85.1683 0
M  V30 25 C  18.6282 38.3151 84.0795 0
M  V30 26 C  19.8080 37.5896 84.2307 0
M  V30 27 H  29.6144 35.2986 81.6548 0
M  V30 28 H  27.4455 35.2608 81.7395 0
M  V30 29 H  28.1855 38.0966 84.0265 0
M  V30 30 H  24.6652 39.2300 86.4249 0
M  V30 31 H  21.5854 37.8553 87.5760 0
M  V30 32 H  22.4652 42.2809 87.4578 0
M  V30 33 H  23.3347 40.9802 88.3231 0
M  V30 34 H  23.6139 41.2539 86.5715 0
M  V30 35 H  22.9418 35.3320 83.9145 0
M  V30 36 H  19.4795 36.6984 87.4944 0
M  V30 37 H  17.4059 38.0355 87.2385 0
M  V30 38 H  16.8613 39.0442 85.0621 0
M  V30 39 H  18.3831 38.7547 83.1245 0
M  V30 40 H  20.4824 37.4754 83.3952 0
M  V30 END ATOM
M  V30 BEGIN BOND
M  V30 1 2 1 2
M  V30 2 1 2 3
M  V30 3 1 2 27
M  V30 4 1 3 4
M  V30 5 1 3 28
M  V30 6 1 4 5
M  V30 7 2 4 7
M  V30 8 2 5 6
M  V30 9 1 5 10
M  V30 10 1 7 8
M  V30 11 1 7 29
M  V30 12 1 8 9
M  V30 13 1 9 10
M  V30 14 2 9 11
M  V30 15 2 10 19
M  V30 16 1 11 12
M  V30 17 1 11 30
M  V30 18 1 12 13
M  V30 19 2 12 18
M  V30 20 1 13 14
M  V30 21 1 13 31
M  V30 22 2 14 15
M  V30 23 2 14 16
M  V30 24 1 14 17
M  V30 25 1 17 32
M  V30 26 1 17 33
M  V30 27 1 17 34
M  V30 28 1 18 19
M  V30 29 1 18 20
M  V30 30 1 19 35
M  V30 31 1 20 21
M  V30 32 2 21 22
M  V30 33 1 21 26
M  V30 34 1 22 23
M  V30 35 1 22 36
M  V30 36 2 23 24
M  V30 37 1 23 37
M  V30 38 1 24 25
M  V30 39 1 24 38
M  V30 40 2 25 26
M  V30 41 1 25 39
M  V30 42 1 26 40
M  V30 END BOND
M  V30 END CTAB
M  END
> <s_m_entry_id>
252

> <s_m_entry_name>
result.7975

> <s_m_Source_Path>
D:\OneDrive - zju.edu.cn\DOC\A-Finished\LCK_VS\Planet\LCK-8617

> <s_m_Source_File>
glide-dock_SP_top1262_2_pv.maegz

> <i_m_Source_File_Index>
252

> <PLANET_affinity>
7.112

> <i_lp_mmshare_version>
54117

> <i_f3d_flags>
0

> <s_epik_input>
Tz1bQ0hdW05IXWMoW2NIXW8xKWMoPU8pYyhjMTIpW2NIXWMoYyhbY0hdMilbTkhdUyg9TykoPU8pW0NIM10pT2MzW2NIXVtjSF1bY0hdW2NIXVtjSF0z

> <s_epik_cmdline>
J2VwaWtfcHl0aG9uJywgJy1waCcsICc3LjAnLCAnLXRuJywgJzgnLCAnLW1hJywgJzUwMCcsICctaW1hZScsICc8aW5maWxlLm1hZT4nLCAnLW9tYWUnLCAnPG91dGZpbGUubWFlPic=

> <r_epik_Ionization_Penalty>
  0.0456

> <r_epik_Ionization_Penalty_Charging>
  0.0454

> <r_epik_Ionization_Penalty_Neutral>
  0.0001

> <r_epik_State_Penalty>
  0.0391

> <r_epik_Charging_Adjusted_Penalty>
0.0845098

> <i_epik_Tot_Q>
0

> <i_epik_Tot_abs_Q>
0

> <s_epik_Chemistry_Notes>
This compound has an imine and may undergo hydrolysis.

> <s_lp_Force_Field>
S-OPLS

> <r_lp_Energy>
24.4738

> <b_lp_Chiralities_Consistent>
1

> <s_lp_Variant>
O=C1C2=CC(OC3=CC=CC=C3)=C(C=C2OC=C1NC([H])=O)NS(=O)(C)=O-1

> <s_i_glide_gridfile>
glide-grid_1

> <i_i_glide_lignum>
2506

> <i_i_glide_rotatable_bonds>
6

> <r_i_docking_score>
-8.47247387524112

> <r_i_glide_ligand_efficiency>
-0.325864379816966

> <r_i_glide_ligand_efficiency_sa>
-0.965371942993343

> <r_i_glide_ligand_efficiency_ln>
-1.98973268914608

> <r_i_glide_gscore>
-8.51157387524112

> <r_i_glide_lipo>
-2.9348743701218

> <r_i_glide_hbond>
-0.573608767505064

> <r_i_glide_metal>
0

> <r_i_glide_rewards>
-2.03741663981702

> <r_i_glide_evdw>
-43.2784461975098

> <r_i_glide_ecoul>
-7.2406530380249

> <r_i_glide_erotb>
0.38628534028465

> <r_i_glide_esite>
-0.101939172502652

> <r_i_glide_emodel>
-71.0222887353006

> <r_i_glide_energy>
-50.5190992355347

> <r_i_glide_einternal>
12.1911239624023

> <i_i_glide_confnum>
15

> <i_i_glide_posenum>
266

> <r_i_glide_eff_state_penalty>
0.0391

> <r_lp_tautomer_probability>
1

> <s_m_subgroup_title>
glide-dock_SP_top1262_2_pv

> <s_m_subgroupid>
glide-dock_SP_top1262_2_pv

> <b_m_subgroup_collapsed>
0

$$$$
N#CC1=CC2=CN=C(NC3=CC=C(N4CCN(C)CC4)C=C3)N=C2N(C5CCCC5)C1=O
                    3D
 Schrodinger Suite 2021-3.
  0  0  0     0  0            999 V3000
M  V30 BEGIN CTAB
M  V30 COUNTS 60 64 0 0 0
M  V30 BEGIN ATOM
M  V30 1 C  25.2544 40.3987 86.3120 0
M  V30 2 C  26.0663 40.7496 87.5648 0
M  V30 3 C  26.1714 39.4340 88.3369 0
M  V30 4 C  26.3529 38.3799 87.2433 0
M  V30 5 C  25.5641 38.9034 86.0204 0
M  V30 6 N  24.4168 38.0185 85.6250 0
M  V30 7 C  23.2470 38.0201 86.3630 0
M  V30 8 O  23.0714 38.6653 87.3979 0
M  V30 9 C  22.1652 37.1850 85.8360 0
M  V30 10 C  20.9025 37.1685 86.5033 0
M  V30 11 N  19.8765 37.1181 87.0370 0
M  V30 12 C  22.3117 36.4153 84.7354 0
M  V30 13 C  24.6444 37.1260 84.5237 0
M  V30 14 C  23.5941 36.3346 84.0435 0
M  V30 15 N  25.8957 36.9979 84.0058 0
M  V30 16 C  26.0810 36.1197 82.9897 0
M  V30 17 N  25.1035 35.3537 82.4434 0
M  V30 18 C  23.8623 35.4630 82.9854 0
M  V30 19 N  27.3594 35.9460 82.4462 0
M  V30 20 C  28.6466 36.3567 82.8410 0
M  V30 21 C  29.7174 35.8847 82.0852 0
M  V30 22 C  31.0245 36.2494 82.3983 0
M  V30 23 C  31.2972 37.0842 83.4899 0
M  V30 24 C  30.2138 37.5596 84.2417 0
M  V30 25 C  28.9086 37.1989 83.9270 0
M  V30 26 N  32.6143 37.4418 83.7896 0
M  V30 27 C  33.6790 36.4196 83.8392 0
M  V30 28 C  33.8315 35.7531 85.2273 0
M  V30 29 N  34.1162 36.8388 86.2895 0 CHG=1
M  V30 30 C  34.2089 36.2069 87.6951 0
M  V30 31 C  33.0072 37.9089 86.2335 0
M  V30 32 C  32.9452 38.4729 84.7932 0
M  V30 33 H  24.2030 40.6028 86.5039 0
M  V30 34 H  25.5288 41.0336 85.4687 0
M  V30 35 H  25.5990 41.5389 88.1547 0
M  V30 36 H  27.0612 41.0974 87.2825 0
M  V30 37 H  25.2506 39.2478 88.8915 0
M  V30 38 H  26.9924 39.4351 89.0550 0
M  V30 39 H  27.4148 38.3522 86.9927 0
M  V30 40 H  26.0799 37.3739 87.5595 0
M  V30 41 H  26.3140 38.9617 85.2318 0
M  V30 42 H  21.4820 35.8244 84.3775 0
M  V30 43 H  23.0948 34.8190 82.5768 0
M  V30 44 H  27.3524 35.3904 81.5963 0
M  V30 45 H  29.5471 35.2295 81.2439 0
M  V30 46 H  31.8211 35.8782 81.7704 0
M  V30 47 H  30.3602 38.2107 85.0886 0
M  V30 48 H  28.1306 37.5959 84.5527 0
M  V30 49 H  33.5111 35.6428 83.0935 0
M  V30 50 H  34.6245 36.8832 83.5501 0
M  V30 51 H  34.6915 35.0822 85.2437 0
M  V30 52 H  32.9416 35.1958 85.5250 0
M  V30 53 H  33.2961 35.6395 87.8913 0
M  V30 54 H  35.0844 35.5566 87.6913 0
M  V30 55 H  34.3396 37.0131 88.4192 0
M  V30 56 H  33.2743 38.6815 86.9575 0
M  V30 57 H  32.0737 37.4386 86.5454 0
M  V30 58 H  33.9085 38.9170 84.5325 0
M  V30 59 H  32.2403 39.3029 84.7304 0
M  V30 60 H  34.9942 37.2828 86.0539 0
M  V30 END ATOM
M  V30 BEGIN BOND
M  V30 1 1 1 2
M  V30 2 1 1 5
M  V30 3 1 1 33
M  V30 4 1 1 34
M  V30 5 1 2 3
M  V30 6 1 2 35
M  V30 7 1 2 36
M  V30 8 1 3 4
M  V30 9 1 3 37
M  V30 10 1 3 38
M  V30 11 1 4 5
M  V30 12 1 4 39
M  V30 13 1 4 40
M  V30 14 1 5 6
M  V30 15 1 5 41
M  V30 16 1 6 7
M  V30 17 1 6 13
M  V30 18 2 7 8
M  V30 19 1 7 9
M  V30 20 1 9 10
M  V30 21 2 9 12
M  V30 22 3 10 11
M  V30 23 1 12 14
M  V30 24 1 12 42
M  V30 25 1 13 14
M  V30 26 2 13 15
M  V30 27 2 14 18
M  V30 28 1 15 16
M  V30 29 2 16 17
M  V30 30 1 16 19
M  V30 31 1 17 18
M  V30 32 1 18 43
M  V30 33 1 19 20
M  V30 34 1 19 44
M  V30 35 2 20 21
M  V30 36 1 20 25
M  V30 37 1 21 22
M  V30 38 1 21 45
M  V30 39 2 22 23
M  V30 40 1 22 46
M  V30 41 1 23 24
M  V30 42 1 23 26
M  V30 43 2 24 25
M  V30 44 1 24 47
M  V30 45 1 25 48
M  V30 46 1 26 27
M  V30 47 1 26 32
M  V30 48 1 27 28
M  V30 49 1 27 49
M  V30 50 1 27 50
M  V30 51 1 28 29
M  V30 52 1 28 51
M  V30 53 1 28 52
M  V30 54 1 29 30
M  V30 55 1 29 31
M  V30 56 1 29 60
M  V30 57 1 30 53
M  V30 58 1 30 54
M  V30 59 1 30 55
M  V30 60 1 31 32
M  V30 61 1 31 56
M  V30 62 1 31 57
M  V30 63 1 32 58
M  V30 64 1 32 59
M  V30 END BOND
M  V30 END CTAB
M  END
> <s_m_entry_id>
253

> <s_m_entry_name>
result.6489

> <s_m_Source_Path>
D:\OneDrive - zju.edu.cn\DOC\A-Finished\LCK_VS\Planet\LCK-8617

> <s_m_Source_File>
glide-dock_SP_top1262_2_pv.maegz

> <i_m_Source_File_Index>
253

> <PLANET_affinity>
7.788

> <i_lp_mmshare_version>
54117

> <i_f3d_flags>
0

> <s_epik_input>
W0NIMl0xW0NIMl1bQ0gyXVtDSDJdW0NIXTFuMmMoPU8pYyhDI04pW2NIXWMoYzIzKVtjSF1uYyhuMylbTkhdYzRbY0hdW2NIXWMoW2NIXVtjSF00KU41W0NIMl1bQ0gyXU4oW0NIM10pW0NIMl1bQ0gyXTU=

> <s_epik_cmdline>
J2VwaWtfcHl0aG9uJywgJy1waCcsICc3LjAnLCAnLXRuJywgJzgnLCAnLW1hJywgJzUwMCcsICctaW1hZScsICc8aW5maWxlLm1hZT4nLCAnLW9tYWUnLCAnPG91dGZpbGUubWFlPic=

> <r_epik_Ionization_Penalty>
  0.0661

> <r_epik_Ionization_Penalty_Charging>
  0.0647

> <r_epik_Ionization_Penalty_Neutral>
  0.0014

> <r_epik_State_Penalty>
  0.2931

> <r_epik_Charging_Adjusted_Penalty>
0.357884

> <i_epik_Tot_Q>
1

> <i_epik_Tot_abs_Q>
1

> <s_epik_Chemistry_Notes>
This compound has an imine and may undergo hydrolysis.

> <s_lp_Force_Field>
S-OPLS

> <r_lp_Energy>
71.3047

> <b_lp_Chiralities_Consistent>
1

> <s_lp_Variant>
N#CC1=CC2=CN=C(NC3=CC=C(N4CCN(C)CC4)C=C3)N=C2N(C5CCCC5)C1=O-1

> <s_i_glide_gridfile>
glide-grid_1

> <i_i_glide_lignum>
1522

> <i_i_glide_rotatable_bonds>
4

> <r_i_docking_score>
-8.46939131122375

> <r_i_glide_ligand_efficiency>
-0.264668478475742

> <r_i_glide_ligand_efficiency_sa>
-0.840270041339714

> <r_i_glide_ligand_efficiency_ln>
-1.89652758147072

> <r_i_glide_gscore>
-8.76249131122375

> <r_i_glide_lipo>
-2.30630522847723

> <r_i_glide_hbond>
-0.511281172511319

> <r_i_glide_metal>
0

> <r_i_glide_rewards>
-2.7955776091642

> <r_i_glide_evdw>
-41.1772003173828

> <r_i_glide_ecoul>
-9.09192085266113

> <r_i_glide_erotb>
0.300344109500731

> <r_i_glide_esite>
-0.0270232668034246

> <r_i_glide_emodel>
-77.9747871589753

> <r_i_glide_energy>
-50.2691211700439

> <r_i_glide_einternal>
5.70882987976074

> <i_i_glide_confnum>
247

> <i_i_glide_posenum>
356

> <r_i_glide_eff_state_penalty>
0.2931

> <s_m_subgroup_title>
glide-dock_SP_top1262_2_pv

> <s_m_subgroupid>
glide-dock_SP_top1262_2_pv

> <b_m_subgroup_collapsed>
0

$$$$
O=C(C1=CC=C(C=C1)NC2=C(F)C=NC(NC3=CC=C(C=C3)CC(N4CCN(CC4)CC)=O)=N2)NC5=CC=CC=...
                    3D
 Schrodinger Suite 2021-3.
  0  0  0     0  0            999 V3000
M  V30 BEGIN CTAB
M  V30 COUNTS 74 78 0 0 0
M  V30 BEGIN ATOM
M  V30 1 Cl 20.9433 34.7570 87.6427 0
M  V30 2 C  20.0491 36.1950 87.2689 0
M  V30 3 C  18.7830 36.3578 87.8338 0
M  V30 4 C  18.0492 37.5218 87.6021 0
M  V30 5 C  18.5859 38.5374 86.8097 0
M  V30 6 C  19.8512 38.3869 86.2414 0
M  V30 7 C  20.5806 37.2133 86.4581 0
M  V30 8 N  21.8558 37.1095 85.9033 0
M  V30 9 C  22.1482 36.4472 84.7646 0
M  V30 10 O  21.2829 35.9599 84.0352 0
M  V30 11 C  23.6146 36.3570 84.3924 0
M  V30 12 C  24.6001 36.9947 85.1625 0
M  V30 13 C  25.9299 36.9699 84.7681 0
M  V30 14 C  26.3054 36.3256 83.5865 0
M  V30 15 C  25.3467 35.6387 82.8432 0
M  V30 16 C  24.0104 35.6426 83.2444 0
M  V30 17 N  27.6370 36.3573 83.1377 0
M  V30 18 C  28.6102 37.3532 83.3391 0
M  V30 19 C  29.9742 37.0493 83.2440 0
M  V30 20 F  30.4147 35.8039 82.9458 0
M  V30 21 C  30.8735 38.0956 83.4636 0
M  V30 22 N  30.4684 39.3595 83.7623 0
M  V30 23 C  29.1288 39.5683 83.8529 0
M  V30 24 N  28.1914 38.6111 83.6431 0
M  V30 25 N  28.7290 40.8771 84.1762 0
M  V30 26 C  27.4824 41.4767 84.4486 0
M  V30 27 C  27.4486 42.8669 84.5955 0
M  V30 28 C  26.2413 43.5243 84.8437 0
M  V30 29 C  25.0548 42.7939 84.9471 0
M  V30 30 C  25.0886 41.4048 84.8417 0
M  V30 31 C  26.2900 40.7526 84.5893 0
M  V30 32 C  23.7204 43.5013 85.1850 0
M  V30 33 C  23.4305 43.7095 86.6857 0
M  V30 34 O  23.2611 42.6903 87.3612 0
M  V30 35 N  23.3701 44.9538 87.2385 0
M  V30 36 C  23.0789 45.1141 88.6811 0
M  V30 37 C  21.7221 45.8439 88.8316 0
M  V30 38 N  21.7637 47.2047 88.0931 0 CHG=1
M  V30 39 C  22.0969 46.9439 86.6031 0
M  V30 40 C  23.4629 46.2297 86.4986 0
M  V30 41 C  20.4092 47.9380 88.2471 0
M  V30 42 C  20.5429 49.4212 87.8631 0
M  V30 43 H  18.3723 35.5803 88.4602 0
M  V30 44 H  17.0706 37.6468 88.0437 0
M  V30 45 H  18.0220 39.4463 86.6423 0
M  V30 46 H  20.2624 39.1809 85.6360 0
M  V30 47 H  22.6123 37.5043 86.4411 0
M  V30 48 H  24.3670 37.5340 86.0676 0
M  V30 49 H  26.6655 37.4665 85.3818 0
M  V30 50 H  25.6369 35.1387 81.9331 0
M  V30 51 H  23.2799 35.1245 82.6366 0
M  V30 52 H  27.9610 35.5331 82.6482 0
M  V30 53 H  31.9393 37.9276 83.3969 0
M  V30 54 H  29.5159 41.5062 84.2729 0
M  V30 55 H  28.3536 43.4496 84.4968 0
M  V30 56 H  26.2283 44.6018 84.9327 0
M  V30 57 H  24.1800 40.8281 84.9409 0
M  V30 58 H  26.2517 39.6840 84.5130 0
M  V30 59 H  22.9084 42.8878 84.7881 0
M  V30 60 H  23.6829 44.4051 84.5891 0
M  V30 61 H  23.8733 45.6916 89.1525 0
M  V30 62 H  23.0485 44.1600 89.2139 0
M  V30 63 H  21.5171 46.0653 89.8805 0
M  V30 64 H  20.8848 45.2571 88.4446 0
M  V30 65 H  21.2830 46.3566 86.1739 0
M  V30 66 H  22.1283 47.9093 86.1006 0
M  V30 67 H  23.7828 46.1473 85.4636 0
M  V30 68 H  24.2327 46.8418 86.9698 0
M  V30 69 H  20.1244 47.8430 89.2979 0
M  V30 70 H  19.6774 47.3937 87.6429 0
M  V30 71 H  19.6141 49.9521 88.0709 0
M  V30 72 H  20.7302 49.5497 86.7988 0
M  V30 73 H  21.3368 49.9195 88.4174 0
M  V30 74 H  22.4961 47.7688 88.5010 0
M  V30 END ATOM
M  V30 BEGIN BOND
M  V30 1 1 1 2
M  V30 2 2 2 3
M  V30 3 1 2 7
M  V30 4 1 3 4
M  V30 5 1 3 43
M  V30 6 2 4 5
M  V30 7 1 4 44
M  V30 8 1 5 6
M  V30 9 1 5 45
M  V30 10 2 6 7
M  V30 11 1 6 46
M  V30 12 1 7 8
M  V30 13 1 8 9
M  V30 14 1 8 47
M  V30 15 2 9 10
M  V30 16 1 9 11
M  V30 17 2 11 12
M  V30 18 1 11 16
M  V30 19 1 12 13
M  V30 20 1 12 48
M  V30 21 2 13 14
M  V30 22 1 13 49
M  V30 23 1 14 15
M  V30 24 1 14 17
M  V30 25 2 15 16
M  V30 26 1 15 50
M  V30 27 1 16 51
M  V30 28 1 17 18
M  V30 29 1 17 52
M  V30 30 2 18 19
M  V30 31 1 18 24
M  V30 32 1 19 20
M  V30 33 1 19 21
M  V30 34 2 21 22
M  V30 35 1 21 53
M  V30 36 1 22 23
M  V30 37 2 23 24
M  V30 38 1 23 25
M  V30 39 1 25 26
M  V30 40 1 25 54
M  V30 41 2 26 27
M  V30 42 1 26 31
M  V30 43 1 27 28
M  V30 44 1 27 55
M  V30 45 2 28 29
M  V30 46 1 28 56
M  V30 47 1 29 30
M  V30 48 1 29 32
M  V30 49 2 30 31
M  V30 50 1 30 57
M  V30 51 1 31 58
M  V30 52 1 32 33
M  V30 53 1 32 59
M  V30 54 1 32 60
M  V30 55 2 33 34
M  V30 56 1 33 35
M  V30 57 1 35 36
M  V30 58 1 35 40
M  V30 59 1 36 37
M  V30 60 1 36 61
M  V30 61 1 36 62
M  V30 62 1 37 38
M  V30 63 1 37 63
M  V30 64 1 37 64
M  V30 65 1 38 39
M  V30 66 1 38 41
M  V30 67 1 38 74
M  V30 68 1 39 40
M  V30 69 1 39 65
M  V30 70 1 39 66
M  V30 71 1 40 67
M  V30 72 1 40 68
M  V30 73 1 41 42
M  V30 74 1 41 69
M  V30 75 1 41 70
M  V30 76 1 42 71
M  V30 77 1 42 72
M  V30 78 1 42 73
M  V30 END BOND
M  V30 END CTAB
M  END
> <s_m_entry_id>
255

> <s_m_entry_name>
result.835

> <s_m_Source_Path>
D:\OneDrive - zju.edu.cn\DOC\A-Finished\LCK_VS\Planet\LCK-8617

> <s_m_Source_File>
glide-dock_SP_top1262_2_pv.maegz

> <i_m_Source_File_Index>
255

> <PLANET_affinity>
8.326

> <i_lp_mmshare_version>
54117

> <i_f3d_flags>
0

> <s_epik_input>
Q2xjMVtjSF1bY0hdW2NIXVtjSF1jMVtOSF1DKD1PKWMyW2NIXVtjSF1jKFtjSF1bY0hdMilbTkhdYzNjKEYpW2NIXW5jKG4zKVtOSF1jNFtjSF1bY0hdYyhbY0hdW2NIXTQpW0NIMl1DKD1PKU41W0NIMl1bQ0gyXU4oW0NIMl1bQ0gyXTUpW0NIMl1bQ0gzXQ==

> <s_epik_cmdline>
J2VwaWtfcHl0aG9uJywgJy1waCcsICc3LjAnLCAnLXRuJywgJzgnLCAnLW1hJywgJzUwMCcsICctaW1hZScsICc8aW5maWxlLm1hZT4nLCAnLW9tYWUnLCAnPG91dGZpbGUubWFlPic=

> <r_epik_Ionization_Penalty>
  0.1840

> <r_epik_Ionization_Penalty_Charging>
  0.1835

> <r_epik_Ionization_Penalty_Neutral>
  0.0005

> <r_epik_State_Penalty>
  0.1731

> <r_epik_Charging_Adjusted_Penalty>
0.356636

> <i_epik_Tot_Q>
1

> <i_epik_Tot_abs_Q>
1

> <s_lp_Force_Field>
S-OPLS

> <r_lp_Energy>
79.3451

> <b_lp_Chiralities_Consistent>
1

> <s_lp_Variant>
O=C(C1=CC=C(C=C1)NC2=C(F)C=NC(NC3=CC=C(C=C3)CC(N4CCN(CC4)CC)=O)=N2)NC5=CC=CC=...-1

> <s_i_glide_gridfile>
glide-grid_1

> <i_i_glide_lignum>
938

> <i_i_glide_rotatable_bonds>
11

> <r_i_docking_score>
-8.46679665161278

> <r_i_glide_ligand_efficiency>
-0.201590396466971

> <r_i_glide_ligand_efficiency_sa>
-0.700733588599378

> <r_i_glide_ligand_efficiency_ln>
-1.78712264336419

> <r_i_glide_gscore>
-8.63989665161278

> <r_i_glide_lipo>
-3.65122156901701

> <r_i_glide_hbond>
-0.246405008499829

> <r_i_glide_metal>
0

> <r_i_glide_rewards>
-0.725780600855188

> <r_i_glide_evdw>
-54.8194465637207

> <r_i_glide_ecoul>
-10.7328548431396

> <r_i_glide_erotb>
0.496024552655281

> <r_i_glide_esite>
-0.161613471239052

> <r_i_glide_emodel>
-101.412104058262

> <r_i_glide_energy>
-65.5523014068604

> <r_i_glide_einternal>
10.9894504547119

> <i_i_glide_confnum>
250

> <i_i_glide_posenum>
320

> <r_i_glide_eff_state_penalty>
0.1731

> <r_lp_tautomer_probability>
1

> <s_m_subgroup_title>
glide-dock_SP_top1262_2_pv

> <s_m_subgroupid>
glide-dock_SP_top1262_2_pv

> <b_m_subgroup_collapsed>
0

$$$$
O=C(N)CN1CCN(C2=CC=C(NC3=NC=C4C(N(CC5=CC(F)=CC(F)=C5)C=C4)=N3)C=C2)CC1
                    3D
 Schrodinger Suite 2021-3.
  0  0  0     0  0            999 V3000
M  V30 BEGIN CTAB
M  V30 COUNTS 61 65 0 0 0
M  V30 BEGIN ATOM
M  V30 1 O  34.0844 37.7510 88.4446 0
M  V30 2 C  34.6528 36.7796 87.9564 0
M  V30 3 N  34.4831 35.5566 88.4434 0
M  V30 4 C  35.5844 36.9349 86.7465 0
M  V30 5 N  34.8211 37.1595 85.4075 0 CHG=1
M  V30 6 C  34.2539 35.8368 84.8483 0
M  V30 7 C  33.7099 36.1101 83.4312 0
M  V30 8 N  32.6626 37.1489 83.3943 0
M  V30 9 C  33.1568 38.3986 83.9979 0
M  V30 10 C  33.6845 38.2117 85.4374 0
M  V30 11 C  31.3184 36.8284 83.2327 0
M  V30 12 C  30.9574 35.9241 82.2318 0
M  V30 13 C  29.6313 35.5641 82.0452 0
M  V30 14 C  28.6301 36.1145 82.8407 0
M  V30 15 C  28.9742 37.0284 83.8418 0
M  V30 16 C  30.3111 37.3786 84.0387 0
M  V30 17 N  27.3225 35.7054 82.5403 0
M  V30 18 C  26.0540 35.8889 83.0941 0
M  V30 19 N  25.0791 35.2037 82.4436 0
M  V30 20 C  23.8113 35.3016 82.9163 0
M  V30 21 N  25.8947 36.6837 84.1853 0
M  V30 22 C  24.6295 36.7567 84.6242 0
M  V30 23 C  23.5198 36.0810 84.0431 0
M  V30 24 N  24.1517 37.4922 85.6982 0
M  V30 25 C  22.7909 37.2827 85.7988 0
M  V30 26 C  22.3615 36.4185 84.8106 0
M  V30 27 C  24.9165 38.4225 86.5196 0
M  V30 28 C  25.1753 39.7411 85.8050 0
M  V30 29 C  26.4350 40.0240 85.2689 0
M  V30 30 C  26.6568 41.2184 84.5845 0
M  V30 31 F  27.8725 41.4706 84.0495 0
M  V30 32 C  25.6226 42.1442 84.4429 0
M  V30 33 C  24.3631 41.8653 84.9698 0
M  V30 34 F  23.3539 42.7502 84.8174 0
M  V30 35 C  24.1398 40.6684 85.6490 0
M  V30 36 H  33.8554 35.4401 89.2342 0
M  V30 37 H  34.8423 34.7323 87.9571 0
M  V30 38 H  36.2000 37.8265 86.8719 0
M  V30 39 H  36.2300 36.0659 86.6029 0
M  V30 40 H  35.0650 35.1057 84.8352 0
M  V30 41 H  33.4778 35.4850 85.5321 0
M  V30 42 H  34.5130 36.3831 82.7450 0
M  V30 43 H  33.3202 35.1638 83.0545 0
M  V30 44 H  32.3609 39.1446 84.0096 0
M  V30 45 H  33.9284 38.8218 83.3527 0
M  V30 46 H  32.8963 37.8533 86.1034 0
M  V30 47 H  34.1103 39.1301 85.8453 0
M  V30 48 H  31.7024 35.4947 81.5782 0
M  V30 49 H  29.3899 34.8618 81.2591 0
M  V30 50 H  28.2247 37.4677 84.4766 0
M  V30 51 H  30.5543 38.0738 84.8281 0
M  V30 52 H  27.2819 35.1558 81.6936 0
M  V30 53 H  23.0378 34.7582 82.3931 0
M  V30 54 H  22.2266 37.7892 86.5697 0
M  V30 55 H  21.3429 36.0964 84.6583 0
M  V30 56 H  24.3776 38.6080 87.4502 0
M  V30 57 H  25.8540 37.9409 86.8036 0
M  V30 58 H  27.2443 39.3177 85.3707 0
M  V30 59 H  25.7864 43.0729 83.9155 0
M  V30 60 H  23.1551 40.4646 86.0431 0
M  V30 61 H  35.4952 37.4970 84.7333 0
M  V30 END ATOM
M  V30 BEGIN BOND
M  V30 1 2 1 2
M  V30 2 1 2 3
M  V30 3 1 2 4
M  V30 4 1 3 36
M  V30 5 1 3 37
M  V30 6 1 4 5
M  V30 7 1 4 38
M  V30 8 1 4 39
M  V30 9 1 5 6
M  V30 10 1 5 10
M  V30 11 1 5 61
M  V30 12 1 6 7
M  V30 13 1 6 40
M  V30 14 1 6 41
M  V30 15 1 7 8
M  V30 16 1 7 42
M  V30 17 1 7 43
M  V30 18 1 8 9
M  V30 19 1 8 11
M  V30 20 1 9 10
M  V30 21 1 9 44
M  V30 22 1 9 45
M  V30 23 1 10 46
M  V30 24 1 10 47
M  V30 25 2 11 12
M  V30 26 1 11 16
M  V30 27 1 12 13
M  V30 28 1 12 48
M  V30 29 2 13 14
M  V30 30 1 13 49
M  V30 31 1 14 15
M  V30 32 1 14 17
M  V30 33 2 15 16
M  V30 34 1 15 50
M  V30 35 1 16 51
M  V30 36 1 17 18
M  V30 37 1 17 52
M  V30 38 2 18 19
M  V30 39 1 18 21
M  V30 40 1 19 20
M  V30 41 2 20 23
M  V30 42 1 20 53
M  V30 43 2 21 22
M  V30 44 1 22 23
M  V30 45 1 22 24
M  V30 46 1 23 26
M  V30 47 1 24 25
M  V30 48 1 24 27
M  V30 49 2 25 26
M  V30 50 1 25 54
M  V30 51 1 26 55
M  V30 52 1 27 28
M  V30 53 1 27 56
M  V30 54 1 27 57
M  V30 55 2 28 29
M  V30 56 1 28 35
M  V30 57 1 29 30
M  V30 58 1 29 58
M  V30 59 1 30 31
M  V30 60 2 30 32
M  V30 61 1 32 33
M  V30 62 1 32 59
M  V30 63 1 33 34
M  V30 64 2 33 35
M  V30 65 1 35 60
M  V30 END BOND
M  V30 END CTAB
M  END
> <s_m_entry_id>
258

> <s_m_entry_name>
result.2262

> <s_m_Source_Path>
D:\OneDrive - zju.edu.cn\DOC\A-Finished\LCK_VS\Planet\LCK-8617

> <s_m_Source_File>
glide-dock_SP_top1262_2_pv.maegz

> <i_m_Source_File_Index>
258

> <PLANET_affinity>
8.292

> <i_lp_mmshare_version>
54117

> <i_f3d_flags>
0

> <s_epik_input>
Tz1DKFtOSDJdKVtDSDJdTjFbQ0gyXVtDSDJdTihbQ0gyXVtDSDJdMSljMltjSF1bY0hdYyhbY0hdW2NIXTIpW05IXWMobjMpbltjSF1jKGMzNClbY0hdW2NIXW40W0NIMl1jNVtjSF1jKEYpW2NIXWMoRilbY0hdNQ==

> <s_epik_cmdline>
J2VwaWtfcHl0aG9uJywgJy1waCcsICc3LjAnLCAnLXRuJywgJzgnLCAnLW1hJywgJzUwMCcsICctaW1hZScsICc8aW5maWxlLm1hZT4nLCAnLW9tYWUnLCAnPG91dGZpbGUubWFlPic=

> <r_epik_Ionization_Penalty>
  0.0592

> <r_epik_Ionization_Penalty_Charging>
  0.0539

> <r_epik_Ionization_Penalty_Neutral>
  0.0053

> <r_epik_State_Penalty>
  0.2291

> <r_epik_Charging_Adjusted_Penalty>
0.282945

> <i_epik_Tot_Q>
1

> <i_epik_Tot_abs_Q>
1

> <s_lp_Force_Field>
S-OPLS

> <r_lp_Energy>
52.5128

> <b_lp_Chiralities_Consistent>
1

> <s_lp_Variant>
O=C(N)CN1CCN(C2=CC=C(NC3=NC=C4C(N(CC5=CC(F)=CC(F)=C5)C=C4)=N3)C=C2)CC1-1

> <s_i_glide_gridfile>
glide-grid_1

> <i_i_glide_lignum>
972

> <i_i_glide_rotatable_bonds>
7

> <r_i_docking_score>
-8.45907978814351

> <r_i_glide_ligand_efficiency>
-0.241687993946958

> <r_i_glide_ligand_efficiency_sa>
-0.790577453640031

> <r_i_glide_ligand_efficiency_ln>
-1.85695575265828

> <r_i_glide_gscore>
-8.68817978814351

> <r_i_glide_lipo>
-1.84373773354703

> <r_i_glide_hbond>
-1.05935211418735

> <r_i_glide_metal>
0

> <r_i_glide_rewards>
-2.04440216305714

> <r_i_glide_evdw>
-40.250862121582

> <r_i_glide_ecoul>
-13.0609369277954

> <r_i_glide_erotb>
0.371707908878301

> <r_i_glide_esite>
-0.140712040981884

> <r_i_glide_emodel>
-74.169984660456

> <r_i_glide_energy>
-53.3117990493774

> <r_i_glide_einternal>
24.1121730804443

> <i_i_glide_confnum>
75

> <i_i_glide_posenum>
297

> <r_i_glide_eff_state_penalty>
0.2291

> <s_m_subgroup_title>
glide-dock_SP_top1262_2_pv

> <s_m_subgroupid>
glide-dock_SP_top1262_2_pv

> <b_m_subgroup_collapsed>
0

$$$$
NC1=C2C(N(C(C)(C)C)N=C2C3=CC=C(Cl)C=C3)=NC=N1
                    3D
 Schrodinger Suite 2021-3.
  0  0  0     0  0            999 V3000
M  V30 BEGIN CTAB
M  V30 COUNTS 37 39 0 0 0
M  V30 BEGIN ATOM
M  V30 1 N  22.6597 35.2130 83.2435 0
M  V30 2 C  23.9692 35.6625 83.3325 0
M  V30 3 N  24.8511 35.1455 82.4450 0
M  V30 4 C  26.1223 35.6107 82.5009 0
M  V30 5 N  26.6182 36.5662 83.3242 0
M  V30 6 C  25.7204 37.0480 84.1947 0
M  V30 7 C  24.3662 36.6321 84.2760 0
M  V30 8 N  25.8819 38.0294 85.1693 0
M  V30 9 C  27.0438 38.8948 85.5093 0
M  V30 10 C  26.7966 40.2944 84.9014 0
M  V30 11 C  28.3703 38.3228 84.9556 0
M  V30 12 C  27.1836 39.0045 87.0517 0
M  V30 13 N  24.7028 38.2359 85.8147 0
M  V30 14 C  23.8023 37.4057 85.3475 0
M  V30 15 C  22.4219 37.3736 85.9277 0
M  V30 16 C  21.7477 38.5668 86.2115 0
M  V30 17 C  20.4580 38.5357 86.7432 0
M  V30 18 C  19.8461 37.3091 86.9991 0
M  V30 19 Cl 18.2422 37.2636 87.6425 0
M  V30 20 C  20.5153 36.1174 86.7342 0
M  V30 21 C  21.7968 36.1514 86.1892 0
M  V30 22 H  21.9701 35.6240 83.8489 0
M  V30 23 H  22.4123 34.5144 82.5506 0
M  V30 24 H  26.8252 35.1649 81.8148 0
M  V30 25 H  25.8842 40.7498 85.2875 0
M  V30 26 H  27.6153 40.9843 85.1158 0
M  V30 27 H  26.6931 40.2429 83.8168 0
M  V30 28 H  28.5099 37.2791 85.2426 0
M  V30 29 H  28.4118 38.3755 83.8664 0
M  V30 30 H  29.2361 38.8739 85.3277 0
M  V30 31 H  27.2807 38.0214 87.5133 0
M  V30 32 H  28.0639 39.5821 87.3384 0
M  V30 33 H  26.3241 39.4942 87.5105 0
M  V30 34 H  22.2161 39.5201 86.0129 0
M  V30 35 H  19.9325 39.4582 86.9501 0
M  V30 36 H  20.0418 35.1671 86.9406 0
M  V30 37 H  22.3043 35.2223 85.9865 0
M  V30 END ATOM
M  V30 BEGIN BOND
M  V30 1 1 1 2
M  V30 2 1 1 22
M  V30 3 1 1 23
M  V30 4 2 2 3
M  V30 5 1 2 7
M  V30 6 1 3 4
M  V30 7 2 4 5
M  V30 8 1 4 24
M  V30 9 1 5 6
M  V30 10 2 6 7
M  V30 11 1 6 8
M  V30 12 1 7 14
M  V30 13 1 8 9
M  V30 14 1 8 13
M  V30 15 1 9 10
M  V30 16 1 9 11
M  V30 17 1 9 12
M  V30 18 1 10 25
M  V30 19 1 10 26
M  V30 20 1 10 27
M  V30 21 1 11 28
M  V30 22 1 11 29
M  V30 23 1 11 30
M  V30 24 1 12 31
M  V30 25 1 12 32
M  V30 26 1 12 33
M  V30 27 2 13 14
M  V30 28 1 14 15
M  V30 29 2 15 16
M  V30 30 1 15 21
M  V30 31 1 16 17
M  V30 32 1 16 34
M  V30 33 2 17 18
M  V30 34 1 17 35
M  V30 35 1 18 19
M  V30 36 1 18 20
M  V30 37 2 20 21
M  V30 38 1 20 36
M  V30 39 1 21 37
M  V30 END BOND
M  V30 END CTAB
M  END
> <s_m_entry_id>
267

> <s_m_entry_name>
result.1300

> <s_m_Source_Path>
D:\OneDrive - zju.edu.cn\DOC\A-Finished\LCK_VS\Planet\LCK-8617

> <s_m_Source_File>
glide-dock_SP_top1262_2_pv.maegz

> <i_m_Source_File_Index>
267

> <PLANET_affinity>
7.396

> <i_lp_mmshare_version>
54117

> <i_f3d_flags>
0

> <s_epik_input>
bjFbY0hdbmMoW05IMl0pYyhjMTIpYyhubjJDKFtDSDNdKShbQ0gzXSlbQ0gzXSktYzNbY0hdW2NIXWMoQ2wpW2NIXVtjSF0z

> <s_epik_cmdline>
J2VwaWtfcHl0aG9uJywgJy1waCcsICc3LjAnLCAnLXRuJywgJzgnLCAnLW1hJywgJzUwMCcsICctaW1hZScsICc8aW5maWxlLm1hZT4nLCAnLW9tYWUnLCAnPG91dGZpbGUubWFlPic=

> <r_epik_Ionization_Penalty>
  0.0008

> <r_epik_Ionization_Penalty_Charging>
  0.0000

> <r_epik_Ionization_Penalty_Neutral>
  0.0008

> <r_epik_State_Penalty>
  0.0000

> <r_epik_Charging_Adjusted_Penalty>
0

> <i_epik_Tot_Q>
0

> <i_epik_Tot_abs_Q>
0

> <s_lp_Force_Field>
S-OPLS

> <r_lp_Energy>
21.2997

> <b_lp_Chiralities_Consistent>
1

> <s_lp_Variant>
NC1=C2C(N(C(C)(C)C)N=C2C3=CC=C(Cl)C=C3)=NC=N1-1

> <s_i_glide_gridfile>
glide-grid_1

> <i_i_glide_lignum>
2101

> <i_i_glide_rotatable_bonds>
2

> <r_i_docking_score>
-8.43681783761286

> <r_i_glide_ligand_efficiency>
-0.401753230362517

> <r_i_glide_ligand_efficiency_sa>
-1.10840669906151

> <r_i_glide_ligand_efficiency_ln>
-2.08598616215411

> <r_i_glide_gscore>
-8.43681783761286

> <r_i_glide_lipo>
-2.44770341367644

> <r_i_glide_hbond>
-0.577131818344384

> <r_i_glide_metal>
0

> <r_i_glide_rewards>
-3.19292671786333

> <r_i_glide_evdw>
-32.698127746582

> <r_i_glide_ecoul>
-4.83732604980469

> <r_i_glide_erotb>
0.141449407071097

> <r_i_glide_esite>
0

> <r_i_glide_emodel>
-55.363126234024

> <r_i_glide_energy>
-37.5354537963867

> <r_i_glide_einternal>
1.93993210792542

> <i_i_glide_confnum>
4

> <i_i_glide_posenum>
388

> <r_i_glide_eff_state_penalty>
0

> <r_lp_tautomer_probability>
1

> <s_m_subgroup_title>
glide-dock_SP_top1262_2_pv

> <s_m_subgroupid>
glide-dock_SP_top1262_2_pv

> <b_m_subgroup_collapsed>
0

$$$$
CC(N1CCCC1)C(C=C2)=CC=C2C(C=N3)=CN4C3=C(C5=CC=C(S(=O)(N)=O)C6=C5C=CC=C6)C=N4
                    3D
 Schrodinger Suite 2021-3.
  0  0  0     0  0            999 V3000
M  V30 BEGIN CTAB
M  V30 COUNTS 64 69 0 0 0
M  V30 BEGIN ATOM
M  V30 1 C  33.2125 37.6252 80.0513 0
M  V30 2 C  33.9736 38.4107 78.9827 0
M  V30 3 C  35.3586 38.7113 79.5607 0
M  V30 4 C  35.4008 38.0904 80.9594 0
M  V30 5 N  33.9222 37.9719 81.3747 0 CHG=1
M  V30 6 C  33.6091 36.9818 82.5266 0 CFG=1
M  V30 7 C  34.4543 37.3267 83.7719 0
M  V30 8 C  32.1133 36.9260 82.8371 0
M  V30 9 C  31.4562 38.0314 83.3826 0
M  V30 10 C  30.0909 37.9759 83.6428 0
M  V30 11 C  29.3522 36.8202 83.3599 0
M  V30 12 C  30.0255 35.7145 82.8220 0
M  V30 13 C  31.3896 35.7637 82.5608 0
M  V30 14 C  27.8781 36.7749 83.6062 0
M  V30 15 C  27.0441 35.9457 82.8430 0
M  V30 16 C  27.2575 37.5363 84.6097 0
M  V30 17 N  25.9242 37.5130 84.8864 0
M  V30 18 C  25.1478 36.7302 84.1214 0
M  V30 19 N  25.7027 35.9374 83.1079 0
M  V30 20 C  23.7473 36.4938 84.0473 0
M  V30 21 C  23.6354 35.5467 83.0178 0
M  V30 22 N  24.7765 35.2142 82.4448 0
M  V30 23 C  22.6287 37.1083 84.8358 0
M  V30 24 C  21.7389 36.2163 85.4232 0
M  V30 25 C  20.6123 36.6518 86.0998 0
M  V30 26 C  20.3101 38.0071 86.1993 0
M  V30 27 S  18.8593 38.4696 87.1544 0
M  V30 28 O  18.2540 37.2457 87.6941 0
M  V30 29 O  19.2841 39.5525 88.0434 0
M  V30 30 N  17.7138 39.1566 86.0432 0
M  V30 31 C  22.3880 38.5167 84.9648 0
M  V30 32 C  21.1952 38.9742 85.6200 0
M  V30 33 C  23.2852 39.4911 84.4481 0
M  V30 34 C  23.0191 40.8497 84.5409 0
M  V30 35 C  21.8567 41.2898 85.1469 0
M  V30 36 C  20.9469 40.3784 85.6709 0
M  V30 37 H  32.1546 37.8716 80.1588 0
M  V30 38 H  33.3043 36.5451 79.9180 0
M  V30 39 H  33.4405 39.3324 78.7409 0
M  V30 40 H  34.0408 37.8345 78.0586 0
M  V30 41 H  36.1493 38.3020 78.9320 0
M  V30 42 H  35.5242 39.7891 79.6224 0
M  V30 43 H  35.7967 37.0725 80.9512 0
M  V30 44 H  35.9353 38.6730 81.7095 0
M  V30 45 H  33.9426 36.0161 82.1381 0
M  V30 46 H  34.2061 36.6602 84.5987 0
M  V30 47 H  35.5207 37.2074 83.5899 0
M  V30 48 H  34.2871 38.3472 84.1146 0
M  V30 49 H  31.9981 38.9397 83.5985 0
M  V30 50 H  29.6103 38.8519 84.0508 0
M  V30 51 H  29.5006 34.7956 82.6069 0
M  V30 52 H  31.8778 34.8948 82.1408 0
M  V30 53 H  27.3871 35.3081 82.0437 0
M  V30 54 H  27.8370 38.1777 85.2573 0
M  V30 55 H  22.7054 35.1151 82.6726 0
M  V30 56 H  21.9217 35.1550 85.3549 0
M  V30 57 H  19.9659 35.9105 86.5456 0
M  V30 58 H  17.0675 38.4427 85.7007 0
M  V30 59 H  17.1810 39.8938 86.5324 0
M  V30 60 H  24.1974 39.1752 83.9761 0
M  V30 61 H  23.7250 41.5680 84.1430 0
M  V30 62 H  21.6666 42.3518 85.2113 0
M  V30 63 H  20.0476 40.7685 86.1189 0
M  V30 64 H  33.5946 38.8786 81.6788 0
M  V30 END ATOM
M  V30 BEGIN BOND
M  V30 1 1 1 2
M  V30 2 1 1 5
M  V30 3 1 1 37
M  V30 4 1 1 38
M  V30 5 1 2 3
M  V30 6 1 2 39
M  V30 7 1 2 40
M  V30 8 1 3 4
M  V30 9 1 3 41
M  V30 10 1 3 42
M  V30 11 1 4 5
M  V30 12 1 4 43
M  V30 13 1 4 44
M  V30 14 1 5 6
M  V30 15 1 5 64
M  V30 16 1 6 7
M  V30 17 1 6 8
M  V30 18 1 6 45
M  V30 19 1 7 46
M  V30 20 1 7 47
M  V30 21 1 7 48
M  V30 22 2 8 9
M  V30 23 1 8 13
M  V30 24 1 9 10
M  V30 25 1 9 49
M  V30 26 2 10 11
M  V30 27 1 10 50
M  V30 28 1 11 12
M  V30 29 1 11 14
M  V30 30 2 12 13
M  V30 31 1 12 51
M  V30 32 1 13 52
M  V30 33 2 14 15
M  V30 34 1 14 16
M  V30 35 1 15 19
M  V30 36 1 15 53
M  V30 37 2 16 17
M  V30 38 1 16 54
M  V30 39 1 17 18
M  V30 40 1 18 19
M  V30 41 2 18 20
M  V30 42 1 19 22
M  V30 43 1 20 21
M  V30 44 1 20 23
M  V30 45 2 21 22
M  V30 46 1 21 55
M  V30 47 2 23 24
M  V30 48 1 23 31
M  V30 49 1 24 25
M  V30 50 1 24 56
M  V30 51 2 25 26
M  V30 52 1 25 57
M  V30 53 1 26 27
M  V30 54 1 26 32
M  V30 55 2 27 28
M  V30 56 2 27 29
M  V30 57 1 27 30
M  V30 58 1 30 58
M  V30 59 1 30 59
M  V30 60 2 31 32
M  V30 61 1 31 33
M  V30 62 1 32 36
M  V30 63 2 33 34
M  V30 64 1 33 60
M  V30 65 1 34 35
M  V30 66 1 34 61
M  V30 67 2 35 36
M  V30 68 1 35 62
M  V30 69 1 36 63
M  V30 END BOND
M  V30 END CTAB
M  END
> <s_m_entry_id>
271

> <s_m_entry_name>
result.7793

> <s_m_Source_Path>
D:\OneDrive - zju.edu.cn\DOC\A-Finished\LCK_VS\Planet\LCK-8617

> <s_m_Source_File>
glide-dock_SP_top1262_2_pv.maegz

> <i_m_Source_File_Index>
271

> <PLANET_affinity>
8.068

> <i_lp_mmshare_version>
54117

> <i_f3d_flags>
0

> <s_epik_input>
W0NIMl0xW0NIMl1bQ0gyXVtDSDJdTjFbQ0BASF0oW0NIM10pYzJbY0hdW2NIXWMoW2NIXVtjSF0yKS1jKFtjSF1uMylbY0hdbihjMzQpbltjSF1jNC1jNVtjSF1bY0hdYyhTKD1PKSg9TylbTkgyXSljKGM1NilbY0hdW2NIXVtjSF1bY0hdNg==

> <s_epik_cmdline>
J2VwaWtfcHl0aG9uJywgJy1waCcsICc3LjAnLCAnLXRuJywgJzgnLCAnLW1hJywgJzUwMCcsICctaW1hZScsICc8aW5maWxlLm1hZT4nLCAnLW9tYWUnLCAnPG91dGZpbGUubWFlPic=

> <r_epik_Ionization_Penalty>
  0.0103

> <r_epik_Ionization_Penalty_Charging>
  0.0097

> <r_epik_Ionization_Penalty_Neutral>
  0.0006

> <r_epik_State_Penalty>
  0.0074

> <r_epik_Charging_Adjusted_Penalty>
0.017094

> <i_epik_Tot_Q>
1

> <i_epik_Tot_abs_Q>
1

> <s_lp_Force_Field>
S-OPLS

> <r_lp_Energy>
58.5278

> <b_lp_Chiralities_Consistent>
1

> <s_lp_Variant>
CC(N1CCCC1)C(C=C2)=CC=C2C(C=N3)=CN4C3=C(C5=CC=C(S(=O)(N)=O)C6=C5C=CC=C6)C=N4-1

> <s_i_glide_gridfile>
glide-grid_1

> <i_i_glide_lignum>
1230

> <i_i_glide_rotatable_bonds>
5

> <r_i_docking_score>
-8.43437032808751

> <r_i_glide_ligand_efficiency>
-0.234288064669098

> <r_i_glide_ligand_efficiency_sa>
-0.773602143897607

> <r_i_glide_ligand_efficiency_ln>
-1.84015173523609

> <r_i_glide_gscore>
-8.44177032808751

> <r_i_glide_lipo>
-3.14940891666949

> <r_i_glide_hbond>
-0.381508893995418

> <r_i_glide_metal>
0

> <r_i_glide_rewards>
-1.02542286393621

> <r_i_glide_evdw>
-46.6261215209961

> <r_i_glide_ecoul>
-11.6591634750366

> <r_i_glide_erotb>
0.328325646039549

> <r_i_glide_esite>
-0.133574702220651

> <r_i_glide_emodel>
-88.1428486791125

> <r_i_glide_energy>
-58.2852849960327

> <r_i_glide_einternal>
4.86283016204834

> <i_i_glide_confnum>
25

> <i_i_glide_posenum>
399

> <r_i_glide_eff_state_penalty>
0.0074

> <s_m_subgroup_title>
glide-dock_SP_top1262_2_pv

> <s_m_subgroupid>
glide-dock_SP_top1262_2_pv

> <b_m_subgroup_collapsed>
0

$$$$
C[C@@H](C(N)=O)NC1=CC=C(C2=NC(N3[C@H](C(F)F)COC3=O)=CN2CCO4)C4=C1
                    3D
 Schrodinger Suite 2021-3.
  0  0  0     0  0            999 V3000
M  V30 BEGIN CTAB
M  V30 COUNTS 48 51 0 0 0
M  V30 BEGIN ATOM
M  V30 1 N  30.1092 41.5567 84.8433 0
M  V30 2 C  29.5636 40.5899 84.1039 0
M  V30 3 O  29.2829 40.7563 82.9157 0
M  V30 4 C  29.3348 39.2288 84.8137 0 CFG=2
M  V30 5 C  30.5957 38.3534 84.6833 0
M  V30 6 N  28.1571 38.5427 84.3122 0
M  V30 7 C  26.8106 38.8313 84.5779 0
M  V30 8 C  25.9143 37.7632 84.6043 0
M  V30 9 C  24.5608 37.9847 84.8425 0
M  V30 10 C  26.3356 40.1251 84.8175 0
M  V30 11 C  24.9775 40.3606 85.0410 0
M  V30 12 O  24.5591 41.6327 85.3568 0
M  V30 13 C  23.7405 42.3526 84.4296 0
M  V30 14 C  22.5688 41.5984 83.7665 0
M  V30 15 N  21.9699 40.5868 84.6186 0
M  V30 16 C  22.6060 39.5010 85.1842 0
M  V30 17 C  24.0749 39.2813 85.0326 0
M  V30 18 C  20.6431 40.3576 84.8431 0
M  V30 19 C  20.5486 39.1747 85.5467 0
M  V30 20 N  21.7570 38.6935 85.7880 0
M  V30 21 N  19.3784 38.5719 85.9669 0
M  V30 22 C  19.1915 37.8446 87.2126 0 CFG=2
M  V30 23 C  19.8027 36.4192 87.1853 0
M  V30 24 F  19.2293 35.5821 88.0441 0
M  V30 25 F  21.1138 36.4119 87.4174 0
M  V30 26 C  17.6718 37.8679 87.3035 0
M  V30 27 O  17.2733 37.9679 85.9559 0
M  V30 28 C  18.2385 38.4629 85.1664 0
M  V30 29 O  18.0493 38.7505 83.9835 0
M  V30 30 H  30.3525 42.4329 84.3793 0
M  V30 31 H  30.3537 41.4101 85.8101 0
M  V30 32 H  29.2023 39.3786 85.8865 0
M  V30 33 H  31.4795 38.8556 85.0792 0
M  V30 34 H  30.8037 38.0913 83.6445 0
M  V30 35 H  30.4868 37.4220 85.2383 0
M  V30 36 H  28.2695 37.5492 84.4479 0
M  V30 37 H  26.2561 36.7536 84.4319 0
M  V30 38 H  23.8790 37.1455 84.8396 0
M  V30 39 H  27.0061 40.9682 84.8345 0
M  V30 40 H  23.3440 43.2190 84.9607 0
M  V30 41 H  24.3828 42.7545 83.6455 0
M  V30 42 H  21.7983 42.3064 83.4577 0
M  V30 43 H  22.8830 41.0937 82.8565 0
M  V30 44 H  19.8939 41.0262 84.4544 0
M  V30 45 H  19.6213 38.4024 88.0432 0
M  V30 46 H  19.6830 35.9578 86.2068 0
M  V30 47 H  17.2598 36.9711 87.7660 0
M  V30 48 H  17.2989 38.7538 87.8275 0
M  V30 END ATOM
M  V30 BEGIN BOND
M  V30 1 1 1 2
M  V30 2 1 1 30
M  V30 3 1 1 31
M  V30 4 2 2 3
M  V30 5 1 2 4
M  V30 6 1 4 5
M  V30 7 1 4 6
M  V30 8 1 4 32
M  V30 9 1 5 33
M  V30 10 1 5 34
M  V30 11 1 5 35
M  V30 12 1 6 7
M  V30 13 1 6 36
M  V30 14 2 7 8
M  V30 15 1 7 10
M  V30 16 1 8 9
M  V30 17 1 8 37
M  V30 18 2 9 17
M  V30 19 1 9 38
M  V30 20 2 10 11
M  V30 21 1 10 39
M  V30 22 1 11 12
M  V30 23 1 11 17
M  V30 24 1 12 13
M  V30 25 1 13 14
M  V30 26 1 13 40
M  V30 27 1 13 41
M  V30 28 1 14 15
M  V30 29 1 14 42
M  V30 30 1 14 43
M  V30 31 1 15 16
M  V30 32 1 15 18
M  V30 33 1 16 17
M  V30 34 2 16 20
M  V30 35 2 18 19
M  V30 36 1 18 44
M  V30 37 1 19 20
M  V30 38 1 19 21
M  V30 39 1 21 22
M  V30 40 1 21 28
M  V30 41 1 22 23
M  V30 42 1 22 26
M  V30 43 1 22 45
M  V30 44 1 23 24
M  V30 45 1 23 25
M  V30 46 1 23 46
M  V30 47 1 26 27
M  V30 48 1 26 47
M  V30 49 1 26 48
M  V30 50 1 27 28
M  V30 51 2 28 29
M  V30 END BOND
M  V30 END CTAB
M  END
> <s_m_entry_id>
273

> <s_m_entry_name>
result.1908

> <s_m_Source_Path>
D:\OneDrive - zju.edu.cn\DOC\A-Finished\LCK_VS\Planet\LCK-8617

> <s_m_Source_File>
glide-dock_SP_top1262_2_pv.maegz

> <i_m_Source_File_Index>
273

> <PLANET_affinity>
7.539

> <i_lp_mmshare_version>
54117

> <i_f3d_flags>
0

> <s_epik_input>
W05IMl1DKD1PKVtDQEhdKFtDSDNdKVtOSF1jKFtjSF0xKVtjSF1bY0hdYyhjMTIpYzNuKFtDSDJdW0NIMl1PMilbY0hdYyhuMylONFtDQEhdKFtDSF0oRilGKVtDSDJdT0M0PU8=

> <s_epik_cmdline>
J2VwaWtfcHl0aG9uJywgJy1waCcsICc3LjAnLCAnLXRuJywgJzgnLCAnLW1hJywgJzUwMCcsICctaW1hZScsICc8aW5maWxlLm1hZT4nLCAnLW9tYWUnLCAnPG91dGZpbGUubWFlPic=

> <r_epik_Ionization_Penalty>
  0.0001

> <r_epik_Ionization_Penalty_Charging>
  0.0000

> <r_epik_Ionization_Penalty_Neutral>
  0.0001

> <r_epik_State_Penalty>
  0.0000

> <r_epik_Charging_Adjusted_Penalty>
5.15663e-06

> <i_epik_Tot_Q>
0

> <i_epik_Tot_abs_Q>
0

> <s_epik_Chemistry_Notes>
This compound has an ester and may undergo hydrolysis at high or low pH.

> <s_lp_Force_Field>
S-OPLS

> <r_lp_Energy>
19.0505

> <b_lp_Chiralities_Consistent>
1

> <s_lp_Variant>
C[C@@H](C(N)=O)NC1=CC=C(C2=NC(N3[C@H](C(F)F)COC3=O)=CN2CCO4)C4=C1-1

> <s_i_glide_gridfile>
glide-grid_1

> <i_i_glide_lignum>
1880

> <i_i_glide_rotatable_bonds>
5

> <r_i_docking_score>
-8.43233479926697

> <r_i_glide_ligand_efficiency>
-0.290770165491964

> <r_i_glide_ligand_efficiency_sa>
-0.89333807084571

> <r_i_glide_ligand_efficiency_ln>
-1.930790843471

> <r_i_glide_gscore>
-8.43233479926697

> <r_i_glide_lipo>
-1.87411838355996

> <r_i_glide_hbond>
-0.72

> <r_i_glide_metal>
0

> <r_i_glide_rewards>
-2.57456787002485

> <r_i_glide_evdw>
-37.5304679870605

> <r_i_glide_ecoul>
-10.9871416091919

> <r_i_glide_erotb>
0.355607478764471

> <r_i_glide_esite>
-0.0946613837148138

> <r_i_glide_emodel>
-71.0416756204205

> <r_i_glide_energy>
-48.5176095962524

> <r_i_glide_einternal>
3.72999906539917

> <i_i_glide_confnum>
6

> <i_i_glide_posenum>
262

> <r_i_glide_eff_state_penalty>
0

> <r_lp_tautomer_probability>
1

> <s_m_subgroup_title>
glide-dock_SP_top1262_2_pv

> <s_m_subgroupid>
glide-dock_SP_top1262_2_pv

> <b_m_subgroup_collapsed>
0

$$$$
O[C@@H]([C@H]([C@H](N1C(NCC2=CC=C(Cl)C(Cl)=C2)=NC3=C1N=CN=C3N)O4)O)[C@H]4COCC...
                    3D
 Schrodinger Suite 2021-3.
  0  0  0     0  0            999 V3000
M  V30 BEGIN CTAB
M  V30 COUNTS 61 65 0 0 0
M  V30 BEGIN ATOM
M  V30 1 Cl 17.6260 37.0085 87.0696 0
M  V30 2 C  18.9408 38.0216 86.5876 0
M  V30 3 C  20.1644 37.8926 87.2436 0
M  V30 4 C  18.7969 38.9728 85.5721 0
M  V30 5 Cl 17.3033 39.1509 84.7139 0
M  V30 6 C  19.8753 39.7975 85.2429 0
M  V30 7 C  21.0897 39.6807 85.9177 0
M  V30 8 C  21.2485 38.7150 86.9201 0
M  V30 9 C  22.5392 38.5914 87.7328 0
M  V30 10 N  23.7726 38.8705 86.9913 0
M  V30 11 C  24.2212 38.1194 85.9106 0
M  V30 12 N  23.5040 37.1555 85.3951 0
M  V30 13 N  25.4147 38.3001 85.2927 0
M  V30 14 C  25.4396 37.3803 84.2791 0
M  V30 15 C  24.2319 36.7178 84.3612 0
M  V30 16 N  26.3922 37.1696 83.3337 0
M  V30 17 C  26.0258 36.2156 82.4635 0
M  V30 18 N  24.8831 35.5168 82.4119 0
M  V30 19 C  23.9411 35.7727 83.3543 0
M  V30 20 N  22.7017 35.1566 83.2433 0
M  V30 21 C  26.4631 39.3849 85.4844 0 CFG=1
M  V30 22 C  25.9991 40.8283 85.2806 0 CFG=2
M  V30 23 O  26.0832 41.1566 83.9067 0
M  V30 24 C  26.9312 41.6025 86.2330 0 CFG=2
M  V30 25 O  27.7503 42.5869 85.6167 0
M  V30 26 O  27.0172 39.3434 86.7568 0
M  V30 27 C  27.7819 40.5295 86.9272 0 CFG=2
M  V30 28 C  28.0523 40.7892 88.4121 0
M  V30 29 O  26.8186 40.9470 89.0997 0
M  V30 30 C  26.8889 41.7527 90.2661 0
M  V30 31 C  25.7003 41.4537 91.1641 0
M  V30 32 C  25.8791 41.4715 92.5468 0
M  V30 33 C  24.8171 41.1577 93.3840 0
M  V30 34 C  23.5736 40.8280 92.8475 0
M  V30 35 C  22.4848 40.4593 93.7380 0
M  V30 36 N  21.6164 40.1640 94.4435 0
M  V30 37 C  23.3797 40.8422 91.4632 0
M  V30 38 C  24.4449 41.1557 90.6225 0
M  V30 39 H  20.2648 37.1543 88.0280 0
M  V30 40 H  19.7751 40.5458 84.4717 0
M  V30 41 H  21.9048 40.3409 85.6613 0
M  V30 42 H  22.6003 37.5761 88.1239 0
M  V30 43 H  22.4749 39.2649 88.5865 0
M  V30 44 H  24.3673 39.5409 87.4542 0
M  V30 45 H  26.7385 36.0056 81.6812 0
M  V30 46 H  22.0834 35.2273 84.0359 0
M  V30 47 H  22.5299 34.4805 82.5071 0
M  V30 48 H  27.2827 39.1526 84.7967 0
M  V30 49 H  24.9684 40.9128 85.6256 0
M  V30 50 H  25.6060 41.9755 83.7497 0
M  V30 51 H  26.2956 42.1043 86.9651 0
M  V30 52 H  27.1977 43.2082 85.1362 0
M  V30 53 H  28.7327 40.3958 86.4055 0
M  V30 54 H  28.6817 41.6779 88.4967 0
M  V30 55 H  28.6104 39.9580 88.8434 0
M  V30 56 H  26.8847 42.8073 89.9900 0
M  V30 57 H  27.8126 41.5570 90.8135 0
M  V30 58 H  26.8403 41.7105 92.9757 0
M  V30 59 H  24.9826 41.1571 94.4463 0
M  V30 60 H  22.4212 40.5964 91.0317 0
M  V30 61 H  24.3010 41.1504 89.5537 0
M  V30 END ATOM
M  V30 BEGIN BOND
M  V30 1 1 1 2
M  V30 2 2 2 3
M  V30 3 1 2 4
M  V30 4 1 3 8
M  V30 5 1 3 39
M  V30 6 1 4 5
M  V30 7 2 4 6
M  V30 8 1 6 7
M  V30 9 1 6 40
M  V30 10 2 7 8
M  V30 11 1 7 41
M  V30 12 1 8 9
M  V30 13 1 9 10
M  V30 14 1 9 42
M  V30 15 1 9 43
M  V30 16 1 10 11
M  V30 17 1 10 44
M  V30 18 2 11 12
M  V30 19 1 11 13
M  V30 20 1 12 15
M  V30 21 1 13 14
M  V30 22 1 13 21
M  V30 23 2 14 15
M  V30 24 1 14 16
M  V30 25 1 15 19
M  V30 26 2 16 17
M  V30 27 1 17 18
M  V30 28 1 17 45
M  V30 29 2 18 19
M  V30 30 1 19 20
M  V30 31 1 20 46
M  V30 32 1 20 47
M  V30 33 1 21 22
M  V30 34 1 21 26
M  V30 35 1 21 48
M  V30 36 1 22 23
M  V30 37 1 22 24
M  V30 38 1 22 49
M  V30 39 1 23 50
M  V30 40 1 24 25
M  V30 41 1 24 27
M  V30 42 1 24 51
M  V30 43 1 25 52
M  V30 44 1 26 27
M  V30 45 1 27 28
M  V30 46 1 27 53
M  V30 47 1 28 29
M  V30 48 1 28 54
M  V30 49 1 28 55
M  V30 50 1 29 30
M  V30 51 1 30 31
M  V30 52 1 30 56
M  V30 53 1 30 57
M  V30 54 2 31 32
M  V30 55 1 31 38
M  V30 56 1 32 33
M  V30 57 1 32 58
M  V30 58 2 33 34
M  V30 59 1 33 59
M  V30 60 1 34 35
M  V30 61 1 34 37
M  V30 62 3 35 36
M  V30 63 2 37 38
M  V30 64 1 37 60
M  V30 65 1 38 61
M  V30 END BOND
M  V30 END CTAB
M  END
> <s_m_entry_id>
274

> <s_m_entry_name>
result.703

> <s_m_Source_Path>
D:\OneDrive - zju.edu.cn\DOC\A-Finished\LCK_VS\Planet\LCK-8617

> <s_m_Source_File>
glide-dock_SP_top1262_2_pv.maegz

> <i_m_Source_File_Index>
274

> <PLANET_affinity>
8.775

> <i_lp_mmshare_version>
54117

> <i_f3d_flags>
0

> <s_epik_input>
Q2xjMVtjSF1bY0hdYyhbY0hdYzFDbClbQ0gyXVtOSF1jKG5jKGMyMyljKFtOSDJdKW5bY0hdbjMpbjJbQ0BIXTRbQ0BIXShbT0hdKVtDQEhdKFtPSF0pW0NASF0oTzQpW0NIMl1PW0NIMl1jNVtjSF1bY0hdYyhDI04pW2NIXVtjSF01

> <s_epik_cmdline>
J2VwaWtfcHl0aG9uJywgJy1waCcsICc3LjAnLCAnLXRuJywgJzgnLCAnLW1hJywgJzUwMCcsICctaW1hZScsICc8aW5maWxlLm1hZT4nLCAnLW9tYWUnLCAnPG91dGZpbGUubWFlPic=

> <r_epik_Ionization_Penalty>
  0.0166

> <r_epik_Ionization_Penalty_Charging>
  0.0000

> <r_epik_Ionization_Penalty_Neutral>
  0.0166

> <r_epik_State_Penalty>
  0.0126

> <r_epik_Charging_Adjusted_Penalty>
0.012611

> <i_epik_Tot_Q>
0

> <i_epik_Tot_abs_Q>
0

> <s_epik_Chemistry_Notes>
This compound contains an acetal/aminal-like group ( X-CH(R)-Y where X, Y are N, S, or O) that may be acid/base labile, releasing an aldehyde.

> <s_lp_Force_Field>
S-OPLS

> <r_lp_Energy>
45.8441

> <b_lp_Chiralities_Consistent>
1

> <s_lp_Variant>
O[C@@H]([C@H]([C@H](N1C(NCC2=CC=C(Cl)C(Cl)=C2)=NC3=C1N=CN=C3N)O4)O)[C@H]4COCC...-1

> <s_i_glide_gridfile>
glide-grid_1

> <i_i_glide_lignum>
621

> <i_i_glide_rotatable_bonds>
10

> <r_i_docking_score>
-8.43166096533291

> <r_i_glide_ligand_efficiency>
-0.221885814877182

> <r_i_glide_ligand_efficiency_sa>
-0.745974651830117

> <r_i_glide_ligand_efficiency_ln>
-1.81811413846171

> <r_i_glide_gscore>
-8.44426096533291

> <r_i_glide_lipo>
-2.68255090442141

> <r_i_glide_hbond>
-0.430225108013651

> <r_i_glide_metal>
0

> <r_i_glide_rewards>
-2.25181350527861

> <r_i_glide_evdw>
-51.5198554992676

> <r_i_glide_ecoul>
-6.43113851547241

> <r_i_glide_erotb>
0.46099210466501

> <r_i_glide_esite>
0

> <r_i_glide_emodel>
-85.7898779813652

> <r_i_glide_energy>
-57.95099401474

> <r_i_glide_einternal>
3.99131941795349

> <i_i_glide_confnum>
185

> <i_i_glide_posenum>
295

> <r_i_glide_eff_state_penalty>
0.0126

> <s_m_subgroup_title>
glide-dock_SP_top1262_2_pv

> <s_m_subgroupid>
glide-dock_SP_top1262_2_pv

> <b_m_subgroup_collapsed>
0

$$$$
O=C1NN=C(C2=CC=CC=C21)CC3=CC=CC(C(N4CCN(CC4)C5=NC=CC=C5C#N)=O)=C3
                    3D
 Schrodinger Suite 2021-3.
  0  0  0     0  0            999 V3000
M  V30 BEGIN CTAB
M  V30 COUNTS 56 60 0 0 0
M  V30 BEGIN ATOM
M  V30 1 C  19.6787 36.3568 87.4309 0
M  V30 2 C  18.4830 36.4118 88.1442 0
M  V30 3 C  17.4036 37.1565 87.6691 0
M  V30 4 C  17.4803 37.7849 86.4310 0
M  V30 5 C  18.6536 37.6854 85.6785 0
M  V30 6 C  19.7904 37.0341 86.2120 0
M  V30 7 C  18.6531 38.2118 84.2542 0
M  V30 8 O  17.7184 38.7566 83.6655 0
M  V30 9 N  19.8406 37.9566 83.6434 0
M  V30 10 N  20.9926 37.3880 84.1529 0
M  V30 11 C  21.0144 37.0325 85.3847 0
M  V30 12 C  22.3696 36.6482 86.0042 0
M  V30 13 C  23.6143 37.2310 85.3255 0
M  V30 14 C  23.8902 38.5971 85.4324 0
M  V30 15 C  24.9961 39.1430 84.7862 0
M  V30 16 C  25.8436 38.3255 84.0394 0
M  V30 17 C  25.6271 36.9402 83.9703 0
M  V30 18 C  24.4857 36.4133 84.5978 0
M  V30 19 C  26.5420 36.0075 83.1979 0
M  V30 20 O  26.0078 35.0848 82.5710 0
M  V30 21 N  27.9022 36.1633 83.2435 0
M  V30 22 C  28.7464 35.1568 82.5720 0
M  V30 23 C  29.9848 35.8243 81.9544 0
M  V30 24 N  30.7162 36.7666 82.8191 0
M  V30 25 C  29.8173 37.6859 83.5387 0
M  V30 26 C  28.6259 36.9967 84.2281 0
M  V30 27 C  31.9801 36.4686 83.3369 0
M  V30 28 N  32.1936 35.1562 83.6427 0
M  V30 29 C  33.3628 34.7891 84.2196 0
M  V30 30 C  34.3697 35.7015 84.5170 0
M  V30 31 C  34.1692 37.0433 84.1968 0
M  V30 32 C  32.9687 37.4473 83.5980 0
M  V30 33 C  32.8205 38.8528 83.2271 0
M  V30 34 N  32.7028 39.9657 82.9324 0
M  V30 35 H  20.5030 35.7875 87.8361 0
M  V30 36 H  18.3964 35.8981 89.0892 0
M  V30 37 H  16.4928 37.2265 88.2471 0
M  V30 38 H  16.6151 38.3132 86.0520 0
M  V30 39 H  19.9058 38.2220 82.6719 0
M  V30 40 H  22.4448 35.5609 86.0453 0
M  V30 41 H  22.3993 36.9778 87.0431 0
M  V30 42 H  23.2300 39.2433 85.9927 0
M  V30 43 H  25.1836 40.2054 84.8445 0
M  V30 44 H  26.6686 38.7841 83.5133 0
M  V30 45 H  24.2703 35.3571 84.5168 0
M  V30 46 H  28.2296 34.5647 81.8155 0
M  V30 47 H  29.1184 34.4680 83.3297 0
M  V30 48 H  29.6884 36.3593 81.0584 0
M  V30 49 H  30.6595 35.0292 81.6382 0
M  V30 50 H  30.3707 38.2209 84.3111 0
M  V30 51 H  29.4520 38.4355 82.8436 0
M  V30 52 H  29.0564 36.3566 84.9932 0
M  V30 53 H  28.0243 37.7144 84.7748 0
M  V30 54 H  33.4828 33.7416 84.4625 0
M  V30 55 H  35.2828 35.3684 84.9913 0
M  V30 56 H  34.9521 37.7576 84.4141 0
M  V30 END ATOM
M  V30 BEGIN BOND
M  V30 1 2 1 2
M  V30 2 1 1 6
M  V30 3 1 1 35
M  V30 4 1 2 3
M  V30 5 1 2 36
M  V30 6 2 3 4
M  V30 7 1 3 37
M  V30 8 1 4 5
M  V30 9 1 4 38
M  V30 10 2 5 6
M  V30 11 1 5 7
M  V30 12 1 6 11
M  V30 13 2 7 8
M  V30 14 1 7 9
M  V30 15 1 9 10
M  V30 16 1 9 39
M  V30 17 2 10 11
M  V30 18 1 11 12
M  V30 19 1 12 13
M  V30 20 1 12 40
M  V30 21 1 12 41
M  V30 22 2 13 14
M  V30 23 1 13 18
M  V30 24 1 14 15
M  V30 25 1 14 42
M  V30 26 2 15 16
M  V30 27 1 15 43
M  V30 28 1 16 17
M  V30 29 1 16 44
M  V30 30 2 17 18
M  V30 31 1 17 19
M  V30 32 1 18 45
M  V30 33 2 19 20
M  V30 34 1 19 21
M  V30 35 1 21 22
M  V30 36 1 21 26
M  V30 37 1 22 23
M  V30 38 1 22 46
M  V30 39 1 22 47
M  V30 40 1 23 24
M  V30 41 1 23 48
M  V30 42 1 23 49
M  V30 43 1 24 25
M  V30 44 1 24 27
M  V30 45 1 25 26
M  V30 46 1 25 50
M  V30 47 1 25 51
M  V30 48 1 26 52
M  V30 49 1 26 53
M  V30 50 2 27 28
M  V30 51 1 27 32
M  V30 52 1 28 29
M  V30 53 2 29 30
M  V30 54 1 29 54
M  V30 55 1 30 31
M  V30 56 1 30 55
M  V30 57 2 31 32
M  V30 58 1 31 56
M  V30 59 1 32 33
M  V30 60 3 33 34
M  V30 END BOND
M  V30 END CTAB
M  END
> <s_m_entry_id>
281

> <s_m_entry_name>
result.4013

> <s_m_Source_Path>
D:\OneDrive - zju.edu.cn\DOC\A-Finished\LCK_VS\Planet\LCK-8617

> <s_m_Source_File>
glide-dock_SP_top1262_2_pv.maegz

> <i_m_Source_File_Index>
281

> <PLANET_affinity>
7.508

> <i_lp_mmshare_version>
54117

> <i_f3d_flags>
0

> <s_epik_input>
W2NIXTFbY0hdW2NIXVtjSF1jKGMxMiljKG5bbkhdYzI9TylbQ0gyXWMzW2NIXVtjSF1bY0hdYyhbY0hdMylDKD1PKU40W0NIMl1bQ0gyXU4oW0NIMl1bQ0gyXTQpYzVuW2NIXVtjSF1bY0hdYzVDI04=

> <s_epik_cmdline>
J2VwaWtfcHl0aG9uJywgJy1waCcsICc3LjAnLCAnLXRuJywgJzgnLCAnLW1hJywgJzUwMCcsICctaW1hZScsICc8aW5maWxlLm1hZT4nLCAnLW9tYWUnLCAnPG91dGZpbGUubWFlPic=

> <r_epik_Ionization_Penalty>
  0.0001

> <r_epik_Ionization_Penalty_Charging>
  0.0001

> <r_epik_Ionization_Penalty_Neutral>
  0.0000

> <r_epik_State_Penalty>
  0.0000

> <r_epik_Charging_Adjusted_Penalty>
0.000118212

> <i_epik_Tot_Q>
0

> <i_epik_Tot_abs_Q>
0

> <s_lp_Force_Field>
S-OPLS

> <r_lp_Energy>
88.2675

> <b_lp_Chiralities_Consistent>
1

> <s_lp_Variant>
O=C1NN=C(C2=CC=CC=C21)CC3=CC=CC(C(N4CCN(CC4)C5=NC=CC=C5C#N)=O)=C3-1

> <s_i_glide_gridfile>
glide-grid_1

> <i_i_glide_lignum>
1919

> <i_i_glide_rotatable_bonds>
5

> <r_i_docking_score>
-8.41837560309005

> <r_i_glide_ligand_efficiency>
-0.247599282443825

> <r_i_glide_ligand_efficiency_sa>
-0.802125556449991

> <r_i_glide_ligand_efficiency_ln>
-1.85985529816009

> <r_i_glide_gscore>
-8.41837560309005

> <r_i_glide_lipo>
-3.38696075385866

> <r_i_glide_hbond>
-0.493364989675087

> <r_i_glide_metal>
0

> <r_i_glide_rewards>
-1.6054371879145

> <r_i_glide_evdw>
-50.0472183227539

> <r_i_glide_ecoul>
-6.16146039962769

> <r_i_glide_erotb>
0.493967304440044

> <r_i_glide_esite>
0

> <r_i_glide_emodel>
-83.0024971930332

> <r_i_glide_energy>
-56.2086787223816

> <r_i_glide_einternal>
4.43847942352295

> <i_i_glide_confnum>
254

> <i_i_glide_posenum>
166

> <r_i_glide_eff_state_penalty>
0

> <r_lp_tautomer_probability>
1

> <s_m_subgroup_title>
glide-dock_SP_top1262_2_pv

> <s_m_subgroupid>
glide-dock_SP_top1262_2_pv

> <b_m_subgroup_collapsed>
0

$$$$
O=C(N1C[C@@H](OC)C)N(C)C2=C1C3=CC(C4=CC(C(C)(O)C)=CN=C4)=CC=C3N=C2
                    3D
 Schrodinger Suite 2021-3.
  0  0  0     0  0            999 V3000
M  V30 BEGIN CTAB
M  V30 COUNTS 56 59 0 0 0
M  V30 BEGIN ATOM
M  V30 1 C  27.5046 40.7219 88.5816 0
M  V30 2 O  27.0780 40.5006 87.2443 0
M  V30 3 C  27.3729 39.2164 86.7056 0 CFG=1
M  V30 4 C  26.4832 38.1321 87.3444 0
M  V30 5 C  27.2039 39.3509 85.1775 0
M  V30 6 N  27.6161 38.1671 84.4074 0
M  V30 7 C  28.9286 37.9990 84.0807 0
M  V30 8 O  29.8770 38.7312 84.3735 0
M  V30 9 N  28.9658 36.8553 83.3564 0
M  V30 10 C  30.1978 36.3165 82.7827 0
M  V30 11 C  26.8351 37.1271 83.9045 0
M  V30 12 C  27.7111 36.3159 83.2373 0
M  V30 13 C  25.4439 36.7804 83.9268 0
M  V30 14 C  25.0607 35.5995 83.2078 0
M  V30 15 N  25.9638 34.8095 82.5621 0
M  V30 16 C  27.2669 35.1718 82.5872 0
M  V30 17 C  23.6993 35.2308 83.1369 0
M  V30 18 C  22.7340 36.0040 83.7668 0
M  V30 19 C  23.0797 37.1607 84.4686 0
M  V30 20 C  24.4262 37.5247 84.5731 0
M  V30 21 C  22.0269 38.0487 85.0234 0
M  V30 22 C  20.9294 37.5350 85.7196 0
M  V30 23 C  19.9359 38.3915 86.2164 0
M  V30 24 C  18.7317 37.8676 87.0074 0
M  V30 25 C  18.9900 36.5340 87.7488 0
M  V30 26 O  18.4051 38.7567 88.0434 0
M  V30 27 C  17.4858 37.7782 86.1086 0
M  V30 28 C  20.0801 39.7632 85.9604 0
M  V30 29 N  21.1281 40.2907 85.2855 0
M  V30 30 C  22.0804 39.4362 84.8400 0
M  V30 31 H  27.3069 41.7584 88.8547 0
M  V30 32 H  26.9650 40.0885 89.2850 0
M  V30 33 H  28.5751 40.5463 88.6958 0
M  V30 34 H  28.4208 38.9782 86.9025 0
M  V30 35 H  26.5795 37.1722 86.8368 0
M  V30 36 H  26.7615 37.9667 88.3838 0
M  V30 37 H  25.4320 38.4185 87.3259 0
M  V30 38 H  27.8064 40.1996 84.8481 0
M  V30 39 H  26.1940 39.6477 84.9200 0
M  V30 40 H  31.0610 36.9544 82.9779 0
M  V30 41 H  30.4052 35.3322 83.2005 0
M  V30 42 H  30.0955 36.2109 81.7032 0
M  V30 43 H  27.9449 34.5278 82.0443 0
M  V30 44 H  23.4042 34.3560 82.5772 0
M  V30 45 H  21.6964 35.7173 83.6655 0
M  V30 46 H  24.6745 38.4100 85.1280 0
M  V30 47 H  20.8688 36.4695 85.8744 0
M  V30 48 H  19.2057 35.7140 87.0667 0
M  V30 49 H  18.1248 36.2261 88.3402 0
M  V30 50 H  19.8333 36.6183 88.4344 0
M  V30 51 H  17.6734 39.3258 87.7588 0
M  V30 52 H  17.6828 37.1569 85.2341 0
M  V30 53 H  16.6322 37.3471 86.6368 0
M  V30 54 H  17.1767 38.7610 85.7441 0
M  V30 55 H  19.3464 40.4761 86.3090 0
M  V30 56 H  22.8924 39.8937 84.2933 0
M  V30 END ATOM
M  V30 BEGIN BOND
M  V30 1 1 1 2
M  V30 2 1 1 31
M  V30 3 1 1 32
M  V30 4 1 1 33
M  V30 5 1 2 3
M  V30 6 1 3 4
M  V30 7 1 3 5
M  V30 8 1 3 34
M  V30 9 1 4 35
M  V30 10 1 4 36
M  V30 11 1 4 37
M  V30 12 1 5 6
M  V30 13 1 5 38
M  V30 14 1 5 39
M  V30 15 1 6 7
M  V30 16 1 6 11
M  V30 17 2 7 8
M  V30 18 1 7 9
M  V30 19 1 9 10
M  V30 20 1 9 12
M  V30 21 1 10 40
M  V30 22 1 10 41
M  V30 23 1 10 42
M  V30 24 2 11 12
M  V30 25 1 11 13
M  V30 26 1 12 16
M  V30 27 2 13 14
M  V30 28 1 13 20
M  V30 29 1 14 15
M  V30 30 1 14 17
M  V30 31 2 15 16
M  V30 32 1 16 43
M  V30 33 2 17 18
M  V30 34 1 17 44
M  V30 35 1 18 19
M  V30 36 1 18 45
M  V30 37 2 19 20
M  V30 38 1 19 21
M  V30 39 1 20 46
M  V30 40 2 21 22
M  V30 41 1 21 30
M  V30 42 1 22 23
M  V30 43 1 22 47
M  V30 44 1 23 24
M  V30 45 2 23 28
M  V30 46 1 24 25
M  V30 47 1 24 26
M  V30 48 1 24 27
M  V30 49 1 25 48
M  V30 50 1 25 49
M  V30 51 1 25 50
M  V30 52 1 26 51
M  V30 53 1 27 52
M  V30 54 1 27 53
M  V30 55 1 27 54
M  V30 56 1 28 29
M  V30 57 1 28 55
M  V30 58 2 29 30
M  V30 59 1 30 56
M  V30 END BOND
M  V30 END CTAB
M  END
> <s_m_entry_id>
282

> <s_m_entry_name>
result.3467

> <s_m_Source_Path>
D:\OneDrive - zju.edu.cn\DOC\A-Finished\LCK_VS\Planet\LCK-8617

> <s_m_Source_File>
glide-dock_SP_top1262_2_pv.maegz

> <i_m_Source_File_Index>
282

> <PLANET_affinity>
7.539

> <i_lp_mmshare_version>
54117

> <i_f3d_flags>
0

> <s_epik_input>
W0NIM11PW0NAQEhdKFtDSDNdKVtDSDJdbjFjKD1PKW4oW0NIM10pYyhjMTIpW2NIXW5jM2MyW2NIXWMoW2NIXVtjSF0zKS1jNFtjSF1jKEMoW0NIM10pKFtPSF0pW0NIM10pW2NIXW5bY0hdNA==

> <s_epik_cmdline>
J2VwaWtfcHl0aG9uJywgJy1waCcsICc3LjAnLCAnLXRuJywgJzgnLCAnLW1hJywgJzUwMCcsICctaW1hZScsICc8aW5maWxlLm1hZT4nLCAnLW9tYWUnLCAnPG91dGZpbGUubWFlPic=

> <r_epik_Ionization_Penalty>
  0.0029

> <r_epik_Ionization_Penalty_Charging>
  0.0000

> <r_epik_Ionization_Penalty_Neutral>
  0.0029

> <r_epik_State_Penalty>
  0.0000

> <r_epik_Charging_Adjusted_Penalty>
1.04802e-09

> <i_epik_Tot_Q>
0

> <i_epik_Tot_abs_Q>
0

> <s_lp_Force_Field>
S-OPLS

> <r_lp_Energy>
33.3527

> <b_lp_Chiralities_Consistent>
1

> <s_lp_Variant>
O=C(N1C[C@@H](OC)C)N(C)C2=C1C3=CC(C4=CC(C(C)(O)C)=CN=C4)=CC=C3N=C2-1

> <s_i_glide_gridfile>
glide-grid_1

> <i_i_glide_lignum>
1881

> <i_i_glide_rotatable_bonds>
6

> <r_i_docking_score>
-8.41464450229077

> <r_i_glide_ligand_efficiency>
-0.280488150076359

> <r_i_glide_ligand_efficiency_sa>
-0.871541896464032

> <r_i_glide_ligand_efficiency_ln>
-1.9118989158157

> <r_i_glide_gscore>
-8.41464450229077

> <r_i_glide_lipo>
-3.62373708457606

> <r_i_glide_hbond>
-0.426610179827685

> <r_i_glide_metal>
0

> <r_i_glide_rewards>
-2.2257532223762

> <r_i_glide_evdw>
-41.0399932861328

> <r_i_glide_ecoul>
-3.75045919418335

> <r_i_glide_erotb>
0.476024527923308

> <r_i_glide_esite>
0

> <r_i_glide_emodel>
-67.4353596727544

> <r_i_glide_energy>
-44.7904524803162

> <r_i_glide_einternal>
4.38973522186279

> <i_i_glide_confnum>
40

> <i_i_glide_posenum>
189

> <r_i_glide_eff_state_penalty>
0

> <r_lp_tautomer_probability>
1

> <s_m_subgroup_title>
glide-dock_SP_top1262_2_pv

> <s_m_subgroupid>
glide-dock_SP_top1262_2_pv

> <b_m_subgroup_collapsed>
0

$$$$
O=C(NC)C1=CC=CC=C1NC2=NC(NC3=CC=C4C(CCC[C@H](N5CCN(CCO)CC5)C4)=C3OC)=NC=C2Cl
                    3D
 Schrodinger Suite 2021-3.
  0  0  0     0  0            999 V3000
M  V30 BEGIN CTAB
M  V30 COUNTS 80 84 0 0 0
M  V30 BEGIN ATOM
M  V30 1 C  21.1106 41.6786 87.2266 0
M  V30 2 N  22.4828 41.1898 87.2894 0
M  V30 3 C  22.8302 39.8913 87.2432 0
M  V30 4 O  22.0014 38.9856 87.1280 0
M  V30 5 C  24.3182 39.5930 87.3305 0
M  V30 6 C  25.1453 40.4555 88.0774 0
M  V30 7 C  26.5096 40.2187 88.2106 0
M  V30 8 C  27.0765 39.1020 87.6146 0
M  V30 9 C  26.2812 38.2382 86.8677 0
M  V30 10 C  24.9063 38.4699 86.6889 0
M  V30 11 N  24.1282 37.6000 85.8863 0
M  V30 12 C  24.4332 36.7953 84.7715 0
M  V30 13 N  25.7068 36.7844 84.3161 0
M  V30 14 C  25.9841 36.1347 83.1631 0
M  V30 15 N  25.0772 35.4148 82.4512 0
M  V30 16 C  23.8069 35.3903 82.9379 0
M  V30 17 C  23.4295 36.0845 84.0928 0
M  V30 18 Cl 21.7803 36.0704 84.6122 0
M  V30 19 N  27.2914 36.1922 82.6591 0
M  V30 20 C  28.4734 36.7397 83.2043 0
M  V30 21 C  29.6191 35.9608 83.0696 0
M  V30 22 C  30.8244 36.3822 83.6084 0
M  V30 23 C  28.5680 37.9937 83.8529 0
M  V30 24 O  27.4626 38.8077 83.9798 0
M  V30 25 C  27.3389 39.8823 83.0620 0
M  V30 26 C  29.7860 38.4094 84.4372 0
M  V30 27 C  30.9264 37.5880 84.3036 0
M  V30 28 C  29.8901 39.7324 85.2132 0
M  V30 29 C  30.8066 40.8115 84.6057 0
M  V30 30 C  32.3136 40.5967 84.8270 0
M  V30 31 C  32.9214 39.2965 84.2427 0 CFG=1
M  V30 32 C  32.2846 38.0216 84.8662 0
M  V30 33 N  32.8280 39.2330 82.6812 0 CHG=1
M  V30 34 C  33.2582 40.5369 81.9519 0
M  V30 35 C  33.1095 40.3431 80.4229 0
M  V30 36 N  33.9430 39.2322 79.9371 0 CFG=1
M  V30 37 C  33.4771 37.9950 80.5811 0
M  V30 38 C  33.6974 38.0788 82.1054 0
M  V30 39 C  33.8542 39.1447 78.4705 0
M  V30 40 C  34.9791 38.2966 77.8595 0
M  V30 41 O  34.8880 38.3512 76.4471 0
M  V30 42 H  21.0899 42.7598 87.3663 0
M  V30 43 H  20.4978 41.2249 88.0058 0
M  V30 44 H  20.6619 41.4542 86.2585 0
M  V30 45 H  23.2118 41.8874 87.2812 0
M  V30 46 H  24.7398 41.3242 88.5758 0
M  V30 47 H  27.1248 40.8982 88.7822 0
M  V30 48 H  28.1333 38.9074 87.7289 0
M  V30 49 H  26.7622 37.3782 86.4328 0
M  V30 50 H  23.1352 37.6987 86.0570 0
M  V30 51 H  23.0801 34.8143 82.3822 0
M  V30 52 H  27.4254 35.6352 81.8248 0
M  V30 53 H  29.5817 35.0075 82.5628 0
M  V30 54 H  31.6866 35.7412 83.5058 0
M  V30 55 H  26.5054 40.5066 83.3774 0
M  V30 56 H  28.2273 40.5097 83.0272 0
M  V30 57 H  27.1180 39.5405 82.0564 0
M  V30 58 H  28.8977 40.1712 85.3207 0
M  V30 59 H  30.1778 39.5156 86.2440 0
M  V30 60 H  30.5457 41.7717 85.0541 0
M  V30 61 H  30.5901 40.9321 83.5456 0
M  V30 62 H  32.4911 40.5979 85.9048 0
M  V30 63 H  32.8565 41.4717 84.4678 0
M  V30 64 H  33.9972 39.3097 84.4378 0
M  V30 65 H  32.1921 38.1290 85.9492 0
M  V30 66 H  32.9894 37.1945 84.7669 0
M  V30 67 H  32.6058 41.3420 82.2896 0
M  V30 68 H  34.2851 40.7566 82.2507 0
M  V30 69 H  32.0641 40.1838 80.1571 0
M  V30 70 H  33.4114 41.2664 79.9276 0
M  V30 71 H  34.0198 37.1334 80.1949 0
M  V30 72 H  32.4232 37.8155 80.3590 0
M  V30 73 H  34.7375 38.2924 82.3584 0
M  V30 74 H  33.4044 37.1475 82.5842 0
M  V30 75 H  32.8996 38.6803 78.2139 0
M  V30 76 H  33.9107 40.1555 78.0694 0
M  V30 77 H  35.9512 38.6764 78.1702 0
M  V30 78 H  34.9196 37.2528 78.1685 0
M  V30 79 H  34.2576 37.6830 76.1348 0
M  V30 80 H  31.8629 39.0430 82.4431 0
M  V30 END ATOM
M  V30 BEGIN BOND
M  V30 1 1 1 2
M  V30 2 1 1 42
M  V30 3 1 1 43
M  V30 4 1 1 44
M  V30 5 1 2 3
M  V30 6 1 2 45
M  V30 7 2 3 4
M  V30 8 1 3 5
M  V30 9 2 5 6
M  V30 10 1 5 10
M  V30 11 1 6 7
M  V30 12 1 6 46
M  V30 13 2 7 8
M  V30 14 1 7 47
M  V30 15 1 8 9
M  V30 16 1 8 48
M  V30 17 2 9 10
M  V30 18 1 9 49
M  V30 19 1 10 11
M  V30 20 1 11 12
M  V30 21 1 11 50
M  V30 22 2 12 13
M  V30 23 1 12 17
M  V30 24 1 13 14
M  V30 25 2 14 15
M  V30 26 1 14 19
M  V30 27 1 15 16
M  V30 28 2 16 17
M  V30 29 1 16 51
M  V30 30 1 17 18
M  V30 31 1 19 20
M  V30 32 1 19 52
M  V30 33 2 20 21
M  V30 34 1 20 23
M  V30 35 1 21 22
M  V30 36 1 21 53
M  V30 37 2 22 27
M  V30 38 1 22 54
M  V30 39 1 23 24
M  V30 40 2 23 26
M  V30 41 1 24 25
M  V30 42 1 25 55
M  V30 43 1 25 56
M  V30 44 1 25 57
M  V30 45 1 26 27
M  V30 46 1 26 28
M  V30 47 1 27 32
M  V30 48 1 28 29
M  V30 49 1 28 58
M  V30 50 1 28 59
M  V30 51 1 29 30
M  V30 52 1 29 60
M  V30 53 1 29 61
M  V30 54 1 30 31
M  V30 55 1 30 62
M  V30 56 1 30 63
M  V30 57 1 31 32
M  V30 58 1 31 33
M  V30 59 1 31 64
M  V30 60 1 32 65
M  V30 61 1 32 66
M  V30 62 1 33 34
M  V30 63 1 33 38
M  V30 64 1 33 80
M  V30 65 1 34 35
M  V30 66 1 34 67
M  V30 67 1 34 68
M  V30 68 1 35 36
M  V30 69 1 35 69
M  V30 70 1 35 70
M  V30 71 1 36 37
M  V30 72 1 36 39
M  V30 73 1 37 38
M  V30 74 1 37 71
M  V30 75 1 37 72
M  V30 76 1 38 73
M  V30 77 1 38 74
M  V30 78 1 39 40
M  V30 79 1 39 75
M  V30 80 1 39 76
M  V30 81 1 40 41
M  V30 82 1 40 77
M  V30 83 1 40 78
M  V30 84 1 41 79
M  V30 END BOND
M  V30 END CTAB
M  END
> <s_m_entry_id>
288

> <s_m_entry_name>
result.850

> <s_m_Source_Path>
D:\OneDrive - zju.edu.cn\DOC\A-Finished\LCK_VS\Planet\LCK-8617

> <s_m_Source_File>
glide-dock_SP_top1262_2_pv.maegz

> <i_m_Source_File_Index>
288

> <PLANET_affinity>
8.564

> <i_lp_mmshare_version>
54117

> <i_f3d_flags>
0

> <s_epik_input>
W0NIM11bTkhdQyg9TyljMVtjSF1bY0hdW2NIXVtjSF1jMVtOSF1jMm5jKG5bY0hdYzJDbClbTkhdYyhjM09bQ0gzXSlbY0hdW2NIXWMoYzM0KVtDSDJdW0NASF0oW0NIMl1bQ0gyXVtDSDJdNClONVtDSDJdW0NIMl1OKFtDSDJdW0NIMl01KVtDSDJdW0NIMl1bT0hd

> <s_epik_cmdline>
J2VwaWtfcHl0aG9uJywgJy1waCcsICc3LjAnLCAnLXRuJywgJzgnLCAnLW1hJywgJzUwMCcsICctaW1hZScsICc8aW5maWxlLm1hZT4nLCAnLW9tYWUnLCAnPG91dGZpbGUubWFlPic=

> <r_epik_Ionization_Penalty>
  0.0609

> <r_epik_Ionization_Penalty_Charging>
  0.0014

> <r_epik_Ionization_Penalty_Neutral>
  0.0595

> <r_epik_State_Penalty>
  0.4157

> <r_epik_Charging_Adjusted_Penalty>
0.417063

> <i_epik_Tot_Q>
1

> <i_epik_Tot_abs_Q>
1

> <s_lp_Force_Field>
S-OPLS

> <r_lp_Energy>
85.2354

> <b_lp_Chiralities_Consistent>
1

> <s_lp_Variant>
O=C(NC)C1=CC=CC=C1NC2=NC(NC3=CC=C4C(CCC[C@H](N5CCN(CCO)CC5)C4)=C3OC)=NC=C2Cl-1

> <s_i_glide_gridfile>
glide-grid_1

> <i_i_glide_lignum>
765

> <i_i_glide_rotatable_bonds>
11

> <r_i_docking_score>
-8.40794345761365

> <r_i_glide_ligand_efficiency>
-0.205071791649113

> <r_i_glide_ligand_efficiency_sa>
-0.70713208660532

> <r_i_glide_ligand_efficiency_ln>
-1.78377318488575

> <r_i_glide_gscore>
-8.82364345761365

> <r_i_glide_lipo>
-2.76330098950022

> <r_i_glide_hbond>
-0.714291374137196

> <r_i_glide_metal>
0

> <r_i_glide_rewards>
-1.35143776799451

> <r_i_glide_evdw>
-48.0069885253906

> <r_i_glide_ecoul>
-12.3951387405396

> <r_i_glide_erotb>
0.276317701254538

> <r_i_glide_esite>
-0.0113107898858013

> <r_i_glide_emodel>
-93.9791813334904

> <r_i_glide_energy>
-60.4021272659302

> <r_i_glide_einternal>
5.388503074646

> <i_i_glide_confnum>
67

> <i_i_glide_posenum>
26

> <r_i_glide_eff_state_penalty>
0.4157

> <r_lp_tautomer_probability>
1

> <s_m_subgroup_title>
glide-dock_SP_top1262_2_pv

> <s_m_subgroupid>
glide-dock_SP_top1262_2_pv

> <b_m_subgroup_collapsed>
0

$$$$
O=C1NC(N2N=CC(C(N3CCN(CC(F)(F)F)CC3)=O)=C2C)=NN4C1=CC=C4
                    3D
 Schrodinger Suite 2021-3.
  0  0  0     0  0            999 V3000
M  V30 BEGIN CTAB
M  V30 COUNTS 47 50 0 0 0
M  V30 BEGIN ATOM
M  V30 1 C  19.0444 36.5866 87.7380 0
M  V30 2 C  17.7886 37.1738 87.7971 0
M  V30 3 C  17.5736 37.8140 86.5762 0
M  V30 4 C  18.7075 37.6380 85.7938 0
M  V30 5 N  19.6115 36.8977 86.5325 0
M  V30 6 C  19.0706 38.0694 84.4492 0
M  V30 7 O  18.3070 38.7554 83.7724 0
M  V30 8 N  20.3292 37.6072 84.0207 0
M  V30 9 C  21.1453 36.9036 84.7338 0
M  V30 10 N  20.8855 36.5472 86.0932 0
M  V30 11 N  22.2695 36.3692 84.0962 0
M  V30 12 N  22.0839 35.6192 82.9991 0
M  V30 13 C  23.2828 35.3236 82.5775 0
M  V30 14 C  24.2964 35.9058 83.3321 0
M  V30 15 C  23.6170 36.4928 84.4153 0
M  V30 16 C  24.1041 37.1871 85.6744 0
M  V30 17 C  25.7052 35.7376 83.0366 0
M  V30 18 O  26.0522 34.6926 82.4834 0
M  V30 19 N  26.5831 36.7334 83.3389 0
M  V30 20 C  28.0198 36.4752 83.0843 0
M  V30 21 C  28.8734 37.3680 84.0154 0
M  V30 22 N  28.4876 38.7825 83.9496 0
M  V30 23 C  29.3792 39.5764 84.8121 0
M  V30 24 C  29.1568 41.1084 84.7749 0
M  V30 25 F  28.1341 41.4782 85.5451 0
M  V30 26 F  28.9250 41.5637 83.5414 0
M  V30 27 F  30.2345 41.7292 85.2504 0
M  V30 28 C  27.0764 38.9404 84.3102 0
M  V30 29 C  26.1627 38.1512 83.3531 0
M  V30 30 H  19.5902 35.9861 88.4438 0
M  V30 31 H  17.0961 37.1566 88.6264 0
M  V30 32 H  16.6841 38.3604 86.2949 0
M  V30 33 H  21.0917 35.5849 86.3148 0
M  V30 34 H  23.4281 34.7567 81.6734 0
M  V30 35 H  25.1530 36.9759 85.8815 0
M  V30 36 H  23.9878 38.2692 85.6151 0
M  V30 37 H  23.5457 36.8603 86.5462 0
M  V30 38 H  28.2702 36.7556 82.0620 0
M  V30 39 H  28.3016 35.4343 83.2509 0
M  V30 40 H  29.9282 37.2509 83.7614 0
M  V30 41 H  28.7385 37.0304 85.0445 0
M  V30 42 H  30.4062 39.3899 84.4921 0
M  V30 43 H  29.3190 39.2316 85.8462 0
M  V30 44 H  26.9296 38.5979 85.3363 0
M  V30 45 H  26.7856 39.9890 84.2644 0
M  V30 46 H  25.1294 38.3204 83.6435 0
M  V30 47 H  26.3228 38.5757 82.3619 0
M  V30 END ATOM
M  V30 BEGIN BOND
M  V30 1 2 1 2
M  V30 2 1 1 5
M  V30 3 1 1 30
M  V30 4 1 2 3
M  V30 5 1 2 31
M  V30 6 2 3 4
M  V30 7 1 3 32
M  V30 8 1 4 5
M  V30 9 1 4 6
M  V30 10 1 5 10
M  V30 11 2 6 7
M  V30 12 1 6 8
M  V30 13 2 8 9
M  V30 14 1 9 10
M  V30 15 1 9 11
M  V30 16 1 10 33
M  V30 17 1 11 12
M  V30 18 1 11 15
M  V30 19 2 12 13
M  V30 20 1 13 14
M  V30 21 1 13 34
M  V30 22 2 14 15
M  V30 23 1 14 17
M  V30 24 1 15 16
M  V30 25 1 16 35
M  V30 26 1 16 36
M  V30 27 1 16 37
M  V30 28 2 17 18
M  V30 29 1 17 19
M  V30 30 1 19 20
M  V30 31 1 19 29
M  V30 32 1 20 21
M  V30 33 1 20 38
M  V30 34 1 20 39
M  V30 35 1 21 22
M  V30 36 1 21 40
M  V30 37 1 21 41
M  V30 38 1 22 23
M  V30 39 1 22 28
M  V30 40 1 23 24
M  V30 41 1 23 42
M  V30 42 1 23 43
M  V30 43 1 24 25
M  V30 44 1 24 26
M  V30 45 1 24 27
M  V30 46 1 28 29
M  V30 47 1 28 44
M  V30 48 1 28 45
M  V30 49 1 29 46
M  V30 50 1 29 47
M  V30 END BOND
M  V30 END CTAB
M  END
> <s_m_entry_id>
289

> <s_m_entry_name>
result.1595

> <s_m_Source_Path>
D:\OneDrive - zju.edu.cn\DOC\A-Finished\LCK_VS\Planet\LCK-8617

> <s_m_Source_File>
glide-dock_SP_top1262_2_pv.maegz

> <i_m_Source_File_Index>
289

> <PLANET_affinity>
7.05

> <i_lp_mmshare_version>
54117

> <i_f3d_flags>
0

> <s_epik_input>
W2NIXTFbY0hdW2NIXW4oYzEyKVtuSF1jKG5jMj1PKS1uM25bY0hdYyhjM1tDSDNdKUMoPU8pTjRbQ0gyXVtDSDJdTihbQ0gyXUMoRikoRilGKVtDSDJdW0NIMl00

> <s_epik_cmdline>
J2VwaWtfcHl0aG9uJywgJy1waCcsICc3LjAnLCAnLXRuJywgJzgnLCAnLW1hJywgJzUwMCcsICctaW1hZScsICc8aW5maWxlLm1hZT4nLCAnLW9tYWUnLCAnPG91dGZpbGUubWFlPic=

> <r_epik_Ionization_Penalty>
  0.0654

> <r_epik_Ionization_Penalty_Charging>
  0.0607

> <r_epik_Ionization_Penalty_Neutral>
  0.0047

> <r_epik_State_Penalty>
  0.1461

> <r_epik_Charging_Adjusted_Penalty>
0.206802

> <i_epik_Tot_Q>
0

> <i_epik_Tot_abs_Q>
0

> <s_lp_Force_Field>
S-OPLS

> <r_lp_Energy>
56.8248

> <b_lp_Chiralities_Consistent>
1

> <s_lp_Variant>
O=C1NC(N2N=CC(C(N3CCN(CC(F)(F)F)CC3)=O)=C2C)=NN4C1=CC=C4-1

> <s_i_glide_gridfile>
glide-grid_1

> <i_i_glide_lignum>
2615

> <i_i_glide_rotatable_bonds>
5

> <r_i_docking_score>
-8.40775850850505

> <r_i_glide_ligand_efficiency>
-0.289922707189829

> <r_i_glide_ligand_efficiency_sa>
-0.890734410447915

> <r_i_glide_ligand_efficiency_ln>
-1.92516349608748

> <r_i_glide_gscore>
-8.55385850850505

> <r_i_glide_lipo>
-2.60210652187139

> <r_i_glide_hbond>
-0.608

> <r_i_glide_metal>
0

> <r_i_glide_rewards>
-2.49642962074885

> <r_i_glide_evdw>
-45.3869323730469

> <r_i_glide_ecoul>
-6.08624029159546

> <r_i_glide_erotb>
0.469985946938404

> <r_i_glide_esite>
-0.13502565043156

> <r_i_glide_emodel>
-70.9208156395181

> <r_i_glide_energy>
-51.4731726646423

> <r_i_glide_einternal>
9.99556159973145

> <i_i_glide_confnum>
132

> <i_i_glide_posenum>
363

> <r_i_glide_eff_state_penalty>
0.1461

> <r_lp_tautomer_probability>
1

> <s_m_subgroup_title>
glide-dock_SP_top1262_2_pv

> <s_m_subgroupid>
glide-dock_SP_top1262_2_pv

> <b_m_subgroup_collapsed>
0

$$$$
O=C(O)C(C=C1)=C(C2CCCC2)C=C1C3=CNC(C3=C4)=NC=C4C5=CC=CC=C5
                    3D
 Schrodinger Suite 2021-3.
  0  0  0     0  0            999 V3000
M  V30 BEGIN CTAB
M  V30 COUNTS 50 54 0 0 0
M  V30 BEGIN ATOM
M  V30 1 C  18.6992 38.8954 86.2004 0
M  V30 2 C  17.4798 37.9567 86.2430 0
M  V30 3 C  17.7242 36.9835 87.4013 0
M  V30 4 C  19.2455 36.8988 87.5005 0
M  V30 5 C  19.7155 38.3362 87.2104 0
M  V30 6 C  21.1995 38.5475 86.8482 0
M  V30 7 C  21.7557 37.7033 85.8760 0
M  V30 8 C  23.0975 37.7859 85.4842 0
M  V30 9 C  23.8885 38.7647 86.0889 0
M  V30 10 C  23.3663 39.6185 87.0490 0
M  V30 11 C  22.0234 39.5429 87.4418 0
M  V30 12 C  21.5365 40.5432 88.4509 0
M  V30 13 O  20.4830 41.1661 88.2048 0
M  V30 14 O  22.1977 40.6997 89.5052 0 CHG=-1
M  V30 15 C  23.6385 36.8239 84.4631 0
M  V30 16 C  22.8780 35.9144 83.7342 0
M  V30 17 N  23.6698 35.1575 82.9121 0
M  V30 18 C  25.0013 36.6339 83.9968 0
M  V30 19 C  24.9752 35.5542 83.0689 0
M  V30 20 C  26.2655 37.2209 84.2210 0
M  V30 21 C  27.3830 36.7586 83.5142 0
M  V30 22 C  27.2034 35.6512 82.6771 0
M  V30 23 N  26.0236 35.0249 82.4433 0
M  V30 24 C  28.7107 37.4285 83.6407 0
M  V30 25 C  28.7930 38.8256 83.7389 0
M  V30 26 C  30.0296 39.4623 83.8350 0
M  V30 27 C  31.1941 38.7021 83.8341 0
M  V30 28 C  31.1337 37.3146 83.7383 0
M  V30 29 C  29.8959 36.6826 83.6437 0
M  V30 30 H  19.1052 38.8718 85.1873 0
M  V30 31 H  18.4294 39.9256 86.4444 0
M  V30 32 H  17.3948 37.4065 85.3047 0
M  V30 33 H  16.5494 38.5105 86.3779 0
M  V30 34 H  17.2601 36.0084 87.2431 0
M  V30 35 H  17.3142 37.3964 88.3263 0
M  V30 36 H  19.6285 36.5139 88.4439 0
M  V30 37 H  19.6181 36.2007 86.7507 0
M  V30 38 H  19.5188 38.8214 88.1625 0
M  V30 39 H  21.1236 36.9639 85.4139 0
M  V30 40 H  24.9154 38.9143 85.8273 0
M  V30 41 H  24.0188 40.3672 87.4788 0
M  V30 42 H  21.8155 35.7229 83.7398 0
M  V30 43 H  23.2999 34.4253 82.3193 0
M  V30 44 H  26.4060 38.0398 84.9006 0
M  V30 45 H  28.0387 35.2547 82.1175 0
M  V30 46 H  27.8966 39.4283 83.7294 0
M  V30 47 H  30.0833 40.5386 83.9115 0
M  V30 48 H  32.1536 39.1943 83.9102 0
M  V30 49 H  32.0421 36.7301 83.7413 0
M  V30 50 H  29.8644 35.6064 83.5712 0
M  V30 END ATOM
M  V30 BEGIN BOND
M  V30 1 1 1 2
M  V30 2 1 1 5
M  V30 3 1 1 30
M  V30 4 1 1 31
M  V30 5 1 2 3
M  V30 6 1 2 32
M  V30 7 1 2 33
M  V30 8 1 3 4
M  V30 9 1 3 34
M  V30 10 1 3 35
M  V30 11 1 4 5
M  V30 12 1 4 36
M  V30 13 1 4 37
M  V30 14 1 5 6
M  V30 15 1 5 38
M  V30 16 2 6 7
M  V30 17 1 6 11
M  V30 18 1 7 8
M  V30 19 1 7 39
M  V30 20 2 8 9
M  V30 21 1 8 15
M  V30 22 1 9 10
M  V30 23 1 9 40
M  V30 24 2 10 11
M  V30 25 1 10 41
M  V30 26 1 11 12
M  V30 27 2 12 13
M  V30 28 1 12 14
M  V30 29 2 15 16
M  V30 30 1 15 18
M  V30 31 1 16 17
M  V30 32 1 16 42
M  V30 33 1 17 19
M  V30 34 1 17 43
M  V30 35 2 18 19
M  V30 36 1 18 20
M  V30 37 1 19 23
M  V30 38 2 20 21
M  V30 39 1 20 44
M  V30 40 1 21 22
M  V30 41 1 21 24
M  V30 42 2 22 23
M  V30 43 1 22 45
M  V30 44 2 24 25
M  V30 45 1 24 29
M  V30 46 1 25 26
M  V30 47 1 25 46
M  V30 48 2 26 27
M  V30 49 1 26 47
M  V30 50 1 27 28
M  V30 51 1 27 48
M  V30 52 2 28 29
M  V30 53 1 28 49
M  V30 54 1 29 50
M  V30 END BOND
M  V30 END CTAB
M  END
> <s_m_entry_id>
291

> <s_m_entry_name>
result.5362

> <s_m_Source_Path>
D:\OneDrive - zju.edu.cn\DOC\A-Finished\LCK_VS\Planet\LCK-8617

> <s_m_Source_File>
glide-dock_SP_top1262_2_pv.maegz

> <i_m_Source_File_Index>
291

> <PLANET_affinity>
7.316

> <i_lp_mmshare_version>
54117

> <i_f3d_flags>
0

> <s_epik_input>
W0NIMl0xW0NIMl1bQ0gyXVtDSDJdW0NIXTFjMltjSF1jKFtjSF1bY0hdYzJDKD1PKVtPSF0pLWMzW2NIXVtuSF1jKGMzNCluW2NIXWMoW2NIXTQpLWM1W2NIXVtjSF1bY0hdW2NIXVtjSF01

> <s_epik_cmdline>
J2VwaWtfcHl0aG9uJywgJy1waCcsICc3LjAnLCAnLXRuJywgJzgnLCAnLW1hJywgJzUwMCcsICctaW1hZScsICc8aW5maWxlLm1hZT4nLCAnLW9tYWUnLCAnPG91dGZpbGUubWFlPic=

> <r_epik_Ionization_Penalty>
  0.0019

> <r_epik_Ionization_Penalty_Charging>
  0.0004

> <r_epik_Ionization_Penalty_Neutral>
  0.0015

> <r_epik_State_Penalty>
  0.0000

> <r_epik_Charging_Adjusted_Penalty>
0.000408161

> <i_epik_Tot_Q>
-1

> <i_epik_Tot_abs_Q>
1

> <s_lp_Force_Field>
S-OPLS

> <r_lp_Energy>
60.4625

> <b_lp_Chiralities_Consistent>
1

> <s_lp_Variant>
O=C(O)C(C=C1)=C(C2CCCC2)C=C1C3=CNC(C3=C4)=NC=C4C5=CC=CC=C5-1

> <s_i_glide_gridfile>
glide-grid_1

> <i_i_glide_lignum>
2225

> <i_i_glide_rotatable_bonds>
4

> <r_i_docking_score>
-8.39759265934304

> <r_i_glide_ligand_efficiency>
-0.289572160667001

> <r_i_glide_ligand_efficiency_sa>
-0.889657420468854

> <r_i_glide_ligand_efficiency_ln>
-1.92283577441308

> <r_i_glide_gscore>
-8.39759265934304

> <r_i_glide_lipo>
-3.2245070783997

> <r_i_glide_hbond>
-0.662088084935285

> <r_i_glide_metal>
0

> <r_i_glide_rewards>
-2.1516006092259

> <r_i_glide_evdw>
-42.2249298095703

> <r_i_glide_ecoul>
-3.23271417617798

> <r_i_glide_erotb>
0.280158519272527

> <r_i_glide_esite>
-0.0434017891494725

> <r_i_glide_emodel>
-68.0785850232462

> <r_i_glide_energy>
-45.4576439857483

> <r_i_glide_einternal>
1.50728535652161

> <i_i_glide_confnum>
39

> <i_i_glide_posenum>
13

> <r_i_glide_eff_state_penalty>
0

> <r_lp_tautomer_probability>
1

> <s_m_subgroup_title>
glide-dock_SP_top1262_2_pv

> <s_m_subgroupid>
glide-dock_SP_top1262_2_pv

> <b_m_subgroup_collapsed>
0

$$$$
O=C1C=C(C2=NN3C(C(C)=NC(C)=C3)=C2)N=C4N1C=C(C5CCN(CC)CC5)C=C4C
                    3D
 Schrodinger Suite 2021-3.
  0  0  0     0  0            999 V3000
M  V30 BEGIN CTAB
M  V30 COUNTS 60 64 0 0 0
M  V30 BEGIN ATOM
M  V30 1 C  34.0868 35.4486 79.6387 0
M  V30 2 C  34.4427 35.8275 81.0913 0
M  V30 3 N  33.2126 36.2188 81.9523 0 CHG=1 CFG=1
M  V30 4 C  32.4865 37.4883 81.4231 0
M  V30 5 C  31.3723 37.8551 82.4244 0
M  V30 6 C  32.2644 35.0109 82.1983 0
M  V30 7 C  31.0989 35.4614 83.0942 0
M  V30 8 C  30.3746 36.6806 82.5071 0 CFG=1
M  V30 9 C  29.0640 36.9894 83.2415 0
M  V30 10 C  28.9475 38.0097 84.2803 0
M  V30 11 C  27.7689 38.3019 84.8884 0
M  V30 12 C  27.7328 39.3788 85.9717 0
M  V30 13 C  27.9115 36.3422 82.9477 0
M  V30 14 N  26.6806 36.5356 83.5669 0
M  V30 15 C  26.5596 37.5525 84.5278 0
M  V30 16 C  25.6414 35.6870 83.2442 0
M  V30 17 O  25.6672 34.7530 82.4450 0
M  V30 18 C  24.4106 35.9754 83.9459 0
M  V30 19 C  24.3315 37.0104 84.8163 0
M  V30 20 N  25.4210 37.7875 85.0945 0
M  V30 21 C  23.0804 37.4069 85.4804 0
M  V30 22 N  22.1142 36.5421 85.7555 0
M  V30 23 C  22.7366 38.7154 85.8554 0
M  V30 24 C  21.4271 38.6296 86.3845 0
M  V30 25 N  21.1152 37.2646 86.3121 0
M  V30 26 C  20.4279 39.4752 86.9076 0
M  V30 27 C  20.5749 40.9807 87.0199 0
M  V30 28 N  19.2342 38.9837 87.3377 0
M  V30 29 C  18.9843 37.6547 87.2455 0
M  V30 30 C  17.6111 37.2067 87.7043 0
M  V30 31 C  19.9176 36.7543 86.7391 0
M  V30 32 H  34.9868 35.1694 79.0889 0
M  V30 33 H  33.6336 36.2768 79.0933 0
M  V30 34 H  33.4100 34.5973 79.5799 0
M  V30 35 H  34.9223 35.0040 81.6259 0
M  V30 36 H  35.1113 36.6898 81.1393 0
M  V30 37 H  33.2349 38.2763 81.3313 0
M  V30 38 H  32.0823 37.2568 80.4366 0
M  V30 39 H  31.8264 38.0450 83.3975 0
M  V30 40 H  30.8858 38.7853 82.1344 0
M  V30 41 H  31.9145 34.6383 81.2436 0
M  V30 42 H  32.8601 34.2309 82.6758 0
M  V30 43 H  30.4051 34.6374 83.2434 0
M  V30 44 H  31.5213 35.7198 84.0536 0
M  V30 45 H  30.0756 36.4372 81.4835 0
M  V30 46 H  29.8336 38.5544 84.5722 0
M  V30 47 H  27.3513 38.9649 86.9058 0
M  V30 48 H  28.7143 39.8075 86.1753 0
M  V30 49 H  27.0614 40.1893 85.6812 0
M  V30 50 H  27.9098 35.5829 82.1694 0
M  V30 51 H  23.5471 35.3719 83.7141 0
M  V30 52 H  23.3559 39.5925 85.7257 0
M  V30 53 H  20.8593 41.4044 86.0556 0
M  V30 54 H  19.6456 41.4687 87.3263 0
M  V30 55 H  21.3511 41.2334 87.7424 0
M  V30 56 H  17.5043 36.1237 87.6434 0
M  V30 57 H  17.4235 37.5115 88.7343 0
M  V30 58 H  16.8413 37.6620 87.0799 0
M  V30 59 H  19.7591 35.6898 86.6460 0
M  V30 60 H  33.5662 36.4703 82.8639 0
M  V30 END ATOM
M  V30 BEGIN BOND
M  V30 1 1 1 2
M  V30 2 1 1 32
M  V30 3 1 1 33
M  V30 4 1 1 34
M  V30 5 1 2 3
M  V30 6 1 2 35
M  V30 7 1 2 36
M  V30 8 1 3 4
M  V30 9 1 3 6
M  V30 10 1 3 60
M  V30 11 1 4 5
M  V30 12 1 4 37
M  V30 13 1 4 38
M  V30 14 1 5 8
M  V30 15 1 5 39
M  V30 16 1 5 40
M  V30 17 1 6 7
M  V30 18 1 6 41
M  V30 19 1 6 42
M  V30 20 1 7 8
M  V30 21 1 7 43
M  V30 22 1 7 44
M  V30 23 1 8 9
M  V30 24 1 8 45
M  V30 25 1 9 10
M  V30 26 2 9 13
M  V30 27 2 10 11
M  V30 28 1 10 46
M  V30 29 1 11 12
M  V30 30 1 11 15
M  V30 31 1 12 47
M  V30 32 1 12 48
M  V30 33 1 12 49
M  V30 34 1 13 14
M  V30 35 1 13 50
M  V30 36 1 14 15
M  V30 37 1 14 16
M  V30 38 2 15 20
M  V30 39 2 16 17
M  V30 40 1 16 18
M  V30 41 2 18 19
M  V30 42 1 18 51
M  V30 43 1 19 20
M  V30 44 1 19 21
M  V30 45 2 21 22
M  V30 46 1 21 23
M  V30 47 1 22 25
M  V30 48 2 23 24
M  V30 49 1 23 52
M  V30 50 1 24 25
M  V30 51 1 24 26
M  V30 52 1 25 31
M  V30 53 1 26 27
M  V30 54 2 26 28
M  V30 55 1 27 53
M  V30 56 1 27 54
M  V30 57 1 27 55
M  V30 58 1 28 29
M  V30 59 1 29 30
M  V30 60 2 29 31
M  V30 61 1 30 56
M  V30 62 1 30 57
M  V30 63 1 30 58
M  V30 64 1 31 59
M  V30 END BOND
M  V30 END CTAB
M  END
> <s_m_entry_id>
294

> <s_m_entry_name>
result.6594

> <s_m_Source_Path>
D:\OneDrive - zju.edu.cn\DOC\A-Finished\LCK_VS\Planet\LCK-8617

> <s_m_Source_File>
glide-dock_SP_top1262_2_pv.maegz

> <i_m_Source_File_Index>
294

> <PLANET_affinity>
8.165

> <i_lp_mmshare_version>
54117

> <i_f3d_flags>
0

> <s_epik_input>
W0NIM11bQ0gyXU4xW0NIMl1bQ0gyXVtDSF0oW0NIMl1bQ0gyXTEpYyhbY0hdMilbY0hdYyhbQ0gzXSljKG4yMyluYyhbY0hdYzM9TyktYyhbY0hdNClubihjNDUpW2NIXWMoW0NIM10pbmM1W0NIM10=

> <s_epik_cmdline>
J2VwaWtfcHl0aG9uJywgJy1waCcsICc3LjAnLCAnLXRuJywgJzgnLCAnLW1hJywgJzUwMCcsICctaW1hZScsICc8aW5maWxlLm1hZT4nLCAnLW9tYWUnLCAnPG91dGZpbGUubWFlPic=

> <r_epik_Ionization_Penalty>
  0.0081

> <r_epik_Ionization_Penalty_Charging>
  0.0069

> <r_epik_Ionization_Penalty_Neutral>
  0.0012

> <r_epik_State_Penalty>
  0.0051

> <r_epik_Charging_Adjusted_Penalty>
0.0119655

> <i_epik_Tot_Q>
1

> <i_epik_Tot_abs_Q>
1

> <s_lp_Force_Field>
S-OPLS

> <r_lp_Energy>
56.7492

> <b_lp_Chiralities_Consistent>
1

> <s_lp_Variant>
O=C1C=C(C2=NN3C(C(C)=NC(C)=C3)=C2)N=C4N1C=C(C5CCN(CC)CC5)C=C4C-1

> <s_i_glide_gridfile>
glide-grid_1

> <i_i_glide_lignum>
1140

> <i_i_glide_rotatable_bonds>
3

> <r_i_docking_score>
-8.39493796473437

> <r_i_glide_ligand_efficiency>
-0.270804450475302

> <r_i_glide_ligand_efficiency_sa>
-0.850699860330834

> <r_i_glide_ligand_efficiency_ln>
-1.89331578499879

> <r_i_glide_gscore>
-8.40003796473437

> <r_i_glide_lipo>
-2.88565004083072

> <r_i_glide_hbond>
-0.32

> <r_i_glide_metal>
0

> <r_i_glide_rewards>
-1.93728257751939

> <r_i_glide_evdw>
-44.0386695861816

> <r_i_glide_ecoul>
-8.54217529296875

> <r_i_glide_erotb>
0.226766627692646

> <r_i_glide_esite>
-0.000612200822513659

> <r_i_glide_emodel>
-78.305551543101

> <r_i_glide_energy>
-52.5808448791504

> <r_i_glide_einternal>
9.60766792297363

> <i_i_glide_confnum>
5

> <i_i_glide_posenum>
138

> <r_i_glide_eff_state_penalty>
0.0051

> <s_m_subgroup_title>
glide-dock_SP_top1262_2_pv

> <s_m_subgroupid>
glide-dock_SP_top1262_2_pv

> <b_m_subgroup_collapsed>
0

$$$$
[H][C@@]12[C@@](C[C@@H](COC3=CC4=C(C(NC5=C(F)C(Cl)=C(Cl)C=C5)=NC=N4)C=C3OC)C2...
                    3D
 Schrodinger Suite 2021-3.
  0  0  0     0  0            999 V3000
M  V30 BEGIN CTAB
M  V30 COUNTS 59 63 0 0 0
M  V30 BEGIN ATOM
M  V30 1 C  34.9008 32.5888 83.6574 0
M  V30 2 N  34.5296 33.9084 82.9552 0 CHG=1 CFG=2
M  V30 3 C  34.4661 35.1104 83.9128 0
M  V30 4 C  33.1305 33.8907 82.3157 0
M  V30 5 C  32.7740 35.3735 82.1339 0 CFG=2
M  V30 6 C  33.6190 36.1497 83.1546 0 CFG=1
M  V30 7 C  31.3011 35.7368 82.4033 0
M  V30 8 C  31.3298 37.0377 83.2233 0 CFG=2
M  V30 9 C  32.6377 36.9482 84.0273 0
M  V30 10 C  30.0744 37.2485 84.0977 0
M  V30 11 O  28.9871 37.5919 83.2430 0
M  V30 12 C  27.7126 37.3678 83.7101 0
M  V30 13 C  26.8983 36.5404 82.9356 0
M  V30 14 C  27.2054 37.9912 84.8651 0
M  V30 15 O  28.0675 38.8053 85.5793 0
M  V30 16 C  27.6206 39.4454 86.7729 0
M  V30 17 C  25.8680 37.7815 85.2325 0
M  V30 18 C  25.0132 36.9633 84.4437 0
M  V30 19 C  25.5492 36.3216 83.2837 0
M  V30 20 C  23.6247 36.7289 84.6998 0
M  V30 21 N  22.8667 35.9463 83.8946 0
M  V30 22 C  23.4899 35.3758 82.8421 0
M  V30 23 N  24.7883 35.5210 82.4880 0
M  V30 24 N  22.9711 37.3042 85.8040 0
M  V30 25 C  21.6016 37.2589 86.1179 0
M  V30 26 C  20.6579 37.9889 85.3765 0
M  V30 27 F  21.0547 38.7507 84.3270 0
M  V30 28 C  19.2996 37.9340 85.7181 0
M  V30 29 Cl 18.1467 38.8151 84.7720 0
M  V30 30 C  18.8875 37.1568 86.8100 0
M  V30 31 Cl 17.2200 37.0500 87.2620 0
M  V30 32 C  19.8277 36.4329 87.5435 0
M  V30 33 C  21.1794 36.4851 87.2014 0
M  V30 34 H  34.1551 32.3892 84.4354 0
M  V30 35 H  35.8877 32.7205 84.1028 0
M  V30 36 H  34.9069 31.8010 82.9038 0
M  V30 37 H  34.0052 34.7567 84.8383 0
M  V30 38 H  35.4871 35.4193 84.1448 0
M  V30 39 H  33.1799 33.3054 81.3939 0
M  V30 40 H  32.4842 33.3755 83.0247 0
M  V30 41 H  33.0437 35.6840 81.1208 0
M  V30 42 H  34.2803 36.8340 82.6170 0
M  V30 43 H  30.7621 35.8939 81.4679 0
M  V30 44 H  30.7747 34.9422 82.9340 0
M  V30 45 H  31.4089 37.8864 82.5386 0
M  V30 46 H  32.4819 36.4728 84.9963 0
M  V30 47 H  33.0320 37.9440 84.2333 0
M  V30 48 H  29.8467 36.3568 84.6823 0
M  V30 49 H  30.2584 38.0572 84.8047 0
M  V30 50 H  27.2974 36.0730 82.0473 0
M  V30 51 H  28.4374 40.0264 87.2024 0
M  V30 52 H  26.7987 40.1365 86.5733 0
M  V30 53 H  27.3062 38.7192 87.5263 0
M  V30 54 H  25.4557 38.2596 86.1065 0
M  V30 55 H  22.8825 34.7571 82.2023 0
M  V30 56 H  23.5371 37.8898 86.3982 0
M  V30 57 H  19.5073 35.8228 88.3752 0
M  V30 58 H  21.8969 35.9129 87.7732 0
M  V30 59 H  35.2192 34.0937 82.2376 0
M  V30 END ATOM
M  V30 BEGIN BOND
M  V30 1 1 1 2
M  V30 2 1 1 34
M  V30 3 1 1 35
M  V30 4 1 1 36
M  V30 5 1 2 3
M  V30 6 1 2 4
M  V30 7 1 2 59
M  V30 8 1 3 6
M  V30 9 1 3 37
M  V30 10 1 3 38
M  V30 11 1 4 5
M  V30 12 1 4 39
M  V30 13 1 4 40
M  V30 14 1 5 6
M  V30 15 1 5 7
M  V30 16 1 5 41
M  V30 17 1 6 9
M  V30 18 1 6 42
M  V30 19 1 7 8
M  V30 20 1 7 43
M  V30 21 1 7 44
M  V30 22 1 8 9
M  V30 23 1 8 10
M  V30 24 1 8 45
M  V30 25 1 9 46
M  V30 26 1 9 47
M  V30 27 1 10 11
M  V30 28 1 10 48
M  V30 29 1 10 49
M  V30 30 1 11 12
M  V30 31 2 12 13
M  V30 32 1 12 14
M  V30 33 1 13 19
M  V30 34 1 13 50
M  V30 35 1 14 15
M  V30 36 2 14 17
M  V30 37 1 15 16
M  V30 38 1 16 51
M  V30 39 1 16 52
M  V30 40 1 16 53
M  V30 41 1 17 18
M  V30 42 1 17 54
M  V30 43 2 18 19
M  V30 44 1 18 20
M  V30 45 1 19 23
M  V30 46 2 20 21
M  V30 47 1 20 24
M  V30 48 1 21 22
M  V30 49 2 22 23
M  V30 50 1 22 55
M  V30 51 1 24 25
M  V30 52 1 24 56
M  V30 53 2 25 26
M  V30 54 1 25 33
M  V30 55 1 26 27
M  V30 56 1 26 28
M  V30 57 1 28 29
M  V30 58 2 28 30
M  V30 59 1 30 31
M  V30 60 1 30 32
M  V30 61 2 32 33
M  V30 62 1 32 57
M  V30 63 1 33 58
M  V30 END BOND
M  V30 END CTAB
M  END
> <s_m_entry_id>
299

> <s_m_entry_name>
result.750

> <s_m_Source_Path>
D:\OneDrive - zju.edu.cn\DOC\A-Finished\LCK_VS\Planet\LCK-8617

> <s_m_Source_File>
glide-dock_SP_top1262_2_pv.maegz

> <i_m_Source_File_Index>
299

> <PLANET_affinity>
7.478

> <i_lp_mmshare_version>
54117

> <i_f3d_flags>
0

> <s_epik_input>
W0NIM11OKFtDSDJdMSlbQ0gyXVtDQEBIXShbQ0BASF0xMilbQ0gyXVtDSF0oW0NIMl0yKVtDSDJdT2MoYyhbY0hdMylPW0NIM10pW2NIXWMoYzM0KW5bY0hdbmM0W05IXWM1YyhGKWMoQ2wpYyhDbClbY0hdW2NIXTU=

> <s_epik_cmdline>
J2VwaWtfcHl0aG9uJywgJy1waCcsICc3LjAnLCAnLXRuJywgJzgnLCAnLW1hJywgJzUwMCcsICctaW1hZScsICc8aW5maWxlLm1hZT4nLCAnLW9tYWUnLCAnPG91dGZpbGUubWFlPic=

> <r_epik_Ionization_Penalty>
  0.0024

> <r_epik_Ionization_Penalty_Charging>
  0.0007

> <r_epik_Ionization_Penalty_Neutral>
  0.0017

> <r_epik_State_Penalty>
  0.0000

> <r_epik_Charging_Adjusted_Penalty>
0.000692235

> <i_epik_Tot_Q>
1

> <i_epik_Tot_abs_Q>
1

> <s_lp_Force_Field>
S-OPLS

> <r_lp_Energy>
45.7383

> <b_lp_Chiralities_Consistent>
1

> <s_lp_Variant>
[H][C@@]12[C@@](C[C@@H](COC3=CC4=C(C(NC5=C(F)C(Cl)=C(Cl)C=C5)=NC=N4)C=C3OC)C2...-1

> <s_i_glide_gridfile>
glide-grid_1

> <i_i_glide_lignum>
1960

> <i_i_glide_rotatable_bonds>
6

> <r_i_docking_score>
-8.38695586096707

> <r_i_glide_ligand_efficiency>
-0.254150177605063

> <r_i_glide_ligand_efficiency_sa>
-0.815195418692663

> <r_i_glide_ligand_efficiency_ln>
-1.8652155581457

> <r_i_glide_gscore>
-8.38695586096707

> <r_i_glide_lipo>
-3.66347635197051

> <r_i_glide_hbond>
-0.0511195945498383

> <r_i_glide_metal>
0

> <r_i_glide_rewards>
-1.68181808925669

> <r_i_glide_evdw>
-44.9092216491699

> <r_i_glide_ecoul>
-7.62794256210327

> <r_i_glide_erotb>
0.419966720617198

> <r_i_glide_esite>
-0.020856079033239

> <r_i_glide_emodel>
-77.5522732450419

> <r_i_glide_energy>
-52.5371642112732

> <r_i_glide_einternal>
12.3220252990723

> <i_i_glide_confnum>
96

> <i_i_glide_posenum>
51

> <r_i_glide_eff_state_penalty>
0

> <r_lp_tautomer_probability>
1

> <s_m_subgroup_title>
glide-dock_SP_top1262_2_pv

> <s_m_subgroupid>
glide-dock_SP_top1262_2_pv

> <b_m_subgroup_collapsed>
0

$$$$
O=C1NN=C(CC2=CC=C(F)C(C(N3CC4=NC(C(F)(F)F)=NN4CC3)=O)=C2)C5=C1C=CC=C5
                    3D
 Schrodinger Suite 2021-3.
  0  0  0     0  0            999 V3000
M  V30 BEGIN CTAB
M  V30 COUNTS 50 54 0 0 0
M  V30 BEGIN ATOM
M  V30 1 C  19.6486 36.3029 87.4253 0
M  V30 2 C  18.4828 36.3987 88.1828 0
M  V30 3 C  17.4023 37.1567 87.7321 0
M  V30 4 C  17.4508 37.7683 86.4842 0
M  V30 5 C  18.5942 37.6352 85.6925 0
M  V30 6 C  19.7257 36.9384 86.1799 0
M  V30 7 C  18.5694 38.1916 84.2804 0
M  V30 8 O  17.6308 38.7564 83.7188 0
M  V30 9 N  19.7436 37.9570 83.6432 0
M  V30 10 N  20.8811 37.3250 84.0966 0
M  V30 11 C  20.9050 36.8611 85.2923 0
M  V30 12 C  22.2023 36.2024 85.7921 0
M  V30 13 C  23.4147 36.2357 84.8531 0
M  V30 14 C  23.3877 35.5581 83.6315 0
M  V30 15 C  24.4897 35.6018 82.7830 0
M  V30 16 C  25.6272 36.3254 83.1386 0
M  V30 17 F  26.6639 36.3567 82.2712 0
M  V30 18 C  25.6809 37.0083 84.3665 0
M  V30 19 C  24.5722 36.9209 85.2259 0
M  V30 20 C  26.9356 37.7468 84.7913 0
M  V30 21 O  28.0295 37.2476 84.5171 0
M  V30 22 N  26.8342 38.8829 85.5399 0
M  V30 23 C  25.6381 39.7534 85.6199 0
M  V30 24 C  28.0174 39.4418 86.2353 0
M  V30 25 C  27.7250 39.4271 87.7677 0
M  V30 26 N  26.4019 40.0056 88.0116 0
M  V30 27 C  25.4003 40.0989 87.0814 0
M  V30 28 N  25.9114 40.3263 89.2110 0
M  V30 29 C  24.6588 40.6364 88.9259 0
M  V30 30 N  24.3000 40.5140 87.6531 0
M  V30 31 C  23.6723 41.1208 89.9817 0
M  V30 32 F  23.3160 42.3844 89.7586 0
M  V30 33 F  24.1846 41.0657 91.2126 0
M  V30 34 F  22.5588 40.3843 89.9824 0
M  V30 35 H  20.4703 35.7205 87.8130 0
M  V30 36 H  18.4236 35.9083 89.1430 0
M  V30 37 H  16.5148 37.2604 88.3411 0
M  V30 38 H  16.5905 38.3243 86.1358 0
M  V30 39 H  19.8026 38.2822 82.6912 0
M  V30 40 H  21.9982 35.1562 86.0150 0
M  V30 41 H  22.4779 36.6536 86.7458 0
M  V30 42 H  22.5081 35.0042 83.3301 0
M  V30 43 H  24.4508 35.1001 81.8301 0
M  V30 44 H  24.6016 37.3895 86.1992 0
M  V30 45 H  24.7518 39.3674 85.1192 0
M  V30 46 H  25.8720 40.6653 85.0685 0
M  V30 47 H  28.1394 40.4647 85.8718 0
M  V30 48 H  28.9515 38.9313 85.9895 0
M  V30 49 H  28.4810 39.9606 88.3441 0
M  V30 50 H  27.6808 38.3953 88.1215 0
M  V30 END ATOM
M  V30 BEGIN BOND
M  V30 1 2 1 2
M  V30 2 1 1 6
M  V30 3 1 1 35
M  V30 4 1 2 3
M  V30 5 1 2 36
M  V30 6 2 3 4
M  V30 7 1 3 37
M  V30 8 1 4 5
M  V30 9 1 4 38
M  V30 10 2 5 6
M  V30 11 1 5 7
M  V30 12 1 6 11
M  V30 13 2 7 8
M  V30 14 1 7 9
M  V30 15 1 9 10
M  V30 16 1 9 39
M  V30 17 2 10 11
M  V30 18 1 11 12
M  V30 19 1 12 13
M  V30 20 1 12 40
M  V30 21 1 12 41
M  V30 22 2 13 14
M  V30 23 1 13 19
M  V30 24 1 14 15
M  V30 25 1 14 42
M  V30 26 2 15 16
M  V30 27 1 15 43
M  V30 28 1 16 17
M  V30 29 1 16 18
M  V30 30 2 18 19
M  V30 31 1 18 20
M  V30 32 1 19 44
M  V30 33 2 20 21
M  V30 34 1 20 22
M  V30 35 1 22 23
M  V30 36 1 22 24
M  V30 37 1 23 27
M  V30 38 1 23 45
M  V30 39 1 23 46
M  V30 40 1 24 25
M  V30 41 1 24 47
M  V30 42 1 24 48
M  V30 43 1 25 26
M  V30 44 1 25 49
M  V30 45 1 25 50
M  V30 46 1 26 27
M  V30 47 1 26 28
M  V30 48 2 27 30
M  V30 49 2 28 29
M  V30 50 1 29 30
M  V30 51 1 29 31
M  V30 52 1 31 32
M  V30 53 1 31 33
M  V30 54 1 31 34
M  V30 END BOND
M  V30 END CTAB
M  END
> <s_m_entry_id>
301

> <s_m_entry_name>
result.1891

> <s_m_Source_Path>
D:\OneDrive - zju.edu.cn\DOC\A-Finished\LCK_VS\Planet\LCK-8617

> <s_m_Source_File>
glide-dock_SP_top1262_2_pv.maegz

> <i_m_Source_File_Index>
301

> <PLANET_affinity>
7.463

> <i_lp_mmshare_version>
54117

> <i_f3d_flags>
0

> <s_epik_input>
W2NIXTFbY0hdW2NIXVtjSF1jKGMxMiljKG5bbkhdYzI9TylbQ0gyXWMzW2NIXVtjSF1jKEYpYyhbY0hdMylDKD1PKU4oW0NIMl1bQ0gyXTQpW0NIMl1jKG40NSluYyhuNSlDKEYpKEYpRg==

> <s_epik_cmdline>
J2VwaWtfcHl0aG9uJywgJy1waCcsICc3LjAnLCAnLXRuJywgJzgnLCAnLW1hJywgJzUwMCcsICctaW1hZScsICc8aW5maWxlLm1hZT4nLCAnLW9tYWUnLCAnPG91dGZpbGUubWFlPic=

> <r_epik_Ionization_Penalty>
  0.0001

> <r_epik_Ionization_Penalty_Charging>
  0.0001

> <r_epik_Ionization_Penalty_Neutral>
  0.0000

> <r_epik_State_Penalty>
  0.0000

> <r_epik_Charging_Adjusted_Penalty>
0.000118212

> <i_epik_Tot_Q>
0

> <i_epik_Tot_abs_Q>
0

> <s_lp_Force_Field>
S-OPLS

> <r_lp_Energy>
71.7597

> <b_lp_Chiralities_Consistent>
1

> <s_lp_Variant>
O=C1NN=C(CC2=CC=C(F)C(C(N3CC4=NC(C(F)(F)F)=NN4CC3)=O)=C2)C5=C1C=CC=C5-1

> <s_i_glide_gridfile>
glide-grid_1

> <i_i_glide_lignum>
1975

> <i_i_glide_rotatable_bonds>
5

> <r_i_docking_score>
-8.3844959775404

> <r_i_glide_ligand_efficiency>
-0.246602822868835

> <r_i_glide_ligand_efficiency_sa>
-0.798897414255153

> <r_i_glide_ligand_efficiency_ln>
-1.85237033858486

> <r_i_glide_gscore>
-8.3844959775404

> <r_i_glide_lipo>
-3.72896049108117

> <r_i_glide_hbond>
-0.32

> <r_i_glide_metal>
0

> <r_i_glide_rewards>
-1.85188942551996

> <r_i_glide_evdw>
-47.447193145752

> <r_i_glide_ecoul>
-3.03286075592041

> <r_i_glide_erotb>
0.36243060562143

> <r_i_glide_esite>
-0.0187878958850483

> <r_i_glide_emodel>
-74.3514897242044

> <r_i_glide_energy>
-50.4800539016724

> <r_i_glide_einternal>
0.975070834159851

> <i_i_glide_confnum>
52

> <i_i_glide_posenum>
78

> <r_i_glide_eff_state_penalty>
0

> <r_lp_tautomer_probability>
1

> <s_m_subgroup_title>
glide-dock_SP_top1262_2_pv

> <s_m_subgroupid>
glide-dock_SP_top1262_2_pv

> <b_m_subgroup_collapsed>
0

$$$$
OC1C(O)C(OC2=C(C(C(C(O)=CC(C(O)=O)=C3)=C3C4C5C(C=CC=C6OC7C(O)C(O)C(O)C(CO)O7)...
                    3D
 Schrodinger Suite 2021-3.
  0  0  0     0  0            999 V3000
M  V30 BEGIN CTAB
M  V30 COUNTS 98 105 0 0 0
M  V30 BEGIN ATOM
M  V30 1 O  27.6967 45.1105 84.5099 0
M  V30 2 C  29.0032 44.6853 84.8445 0
M  V30 3 C  29.1933 44.4182 86.3563 0 CFG=2
M  V30 4 C  30.6518 44.6523 86.8251 0 CFG=2
M  V30 5 O  31.6116 43.9482 86.0435 0
M  V30 6 O  28.8033 43.0665 86.6466 0
M  V30 7 C  28.8130 42.7077 88.0090 0 CFG=2
M  V30 8 C  30.2223 42.8761 88.6171 0 CFG=1
M  V30 9 O  31.1258 41.8532 88.2140 0
M  V30 10 C  30.7606 44.3005 88.3256 0 CFG=1
M  V30 11 O  32.0695 44.4967 88.8321 0
M  V30 12 O  28.4852 41.3504 88.1366 0
M  V30 13 C  27.1608 41.0232 88.2988 0
M  V30 14 C  26.5750 41.2893 89.5384 0
M  V30 15 C  25.2678 40.9035 89.7943 0
M  V30 16 C  24.5397 40.2588 88.8035 0
M  V30 17 C  25.0812 40.0048 87.5387 0
M  V30 18 C  26.4228 40.3690 87.2866 0
M  V30 19 C  24.2096 39.3608 86.4422 0 CFG=2
M  V30 20 C  25.0624 38.5566 85.4444 0
M  V30 21 C  26.4038 38.9046 85.1832 0
M  V30 22 C  27.0343 40.0286 85.9557 0
M  V30 23 O  28.1034 40.5152 85.5833 0
M  V30 24 C  27.1273 38.1705 84.2190 0
M  V30 25 O  28.4287 38.4610 83.8959 0
M  V30 26 C  26.5366 37.1069 83.5462 0
M  V30 27 C  25.2136 36.7246 83.8048 0
M  V30 28 C  24.5591 35.5900 83.0450 0
M  V30 29 O  25.2836 34.7566 82.4509 0 CHG=-1
M  V30 30 O  23.3070 35.5443 83.0199 0
M  V30 31 C  24.5066 37.4632 84.7695 0
M  V30 32 C  23.2357 40.3651 85.7042 0 CFG=1
M  V30 33 C  21.7531 40.0631 85.9592 0
M  V30 34 C  21.0839 39.1386 85.1557 0
M  V30 35 C  19.7188 38.8829 85.3041 0
M  V30 36 C  19.0347 37.9234 84.3879 0
M  V30 37 O  18.0800 38.3564 83.7005 0 CHG=-1
M  V30 38 O  19.4892 36.7569 84.3474 0
M  V30 39 C  19.0150 39.5567 86.3076 0
M  V30 40 C  19.6548 40.4874 87.1220 0
M  V30 41 O  18.8830 41.1567 88.0387 0
M  V30 42 C  21.0313 40.7565 86.9581 0
M  V30 43 C  21.7537 41.8035 87.7633 0
M  V30 44 O  21.3559 42.1595 88.8757 0
M  V30 45 C  22.8501 42.5271 87.0302 0
M  V30 46 C  23.5102 41.8535 85.9726 0
M  V30 47 C  23.2036 43.8617 87.3312 0
M  V30 48 C  24.1316 44.5262 86.5193 0
M  V30 49 C  24.7074 43.8856 85.4337 0
M  V30 50 C  24.4139 42.5563 85.1747 0
M  V30 51 O  22.6765 44.5089 88.4330 0
M  V30 52 C  22.1561 45.7987 88.2637 0 CFG=2
M  V30 53 C  23.0650 46.8204 88.9757 0 CFG=2
M  V30 54 O  23.2279 46.5238 90.3547 0
M  V30 55 C  22.4563 48.2312 88.7626 0 CFG=2
M  V30 56 O  23.2341 49.2667 89.3448 0
M  V30 57 C  20.9683 48.2783 89.1956 0 CFG=2
M  V30 58 O  20.8165 48.3202 90.6088 0
M  V30 59 C  20.1932 47.0878 88.5595 0 CFG=1
M  V30 60 O  20.8832 45.8639 88.8484 0
M  V30 61 C  18.7267 46.9355 89.0190 0
M  V30 62 O  18.0122 48.1434 88.8444 0
M  V30 63 H  27.6331 45.1567 83.5505 0
M  V30 64 H  29.2278 43.7701 84.2982 0
M  V30 65 H  29.6885 45.4517 84.4759 0
M  V30 66 H  28.5477 45.1045 86.9099 0
M  V30 67 H  30.8893 45.7079 86.6891 0
M  V30 68 H  31.4258 44.0588 85.0987 0
M  V30 69 H  28.0765 43.3585 88.4909 0
M  V30 70 H  30.1176 42.7570 89.6964 0
M  V30 71 H  30.6822 41.0022 88.3080 0
M  V30 72 H  30.1415 45.0078 88.8784 0
M  V30 73 H  32.6322 43.8695 88.3688 0
M  V30 74 H  27.1501 41.7754 90.3128 0
M  V30 75 H  24.8199 41.1026 90.7560 0
M  V30 76 H  23.5238 39.9577 89.0157 0
M  V30 77 H  23.5997 38.6183 86.9615 0
M  V30 78 H  28.7392 39.2209 84.4039 0
M  V30 79 H  27.1229 36.5764 82.8084 0
M  V30 80 H  23.4800 37.2001 84.9872 0
M  V30 81 H  23.3718 40.2399 84.6271 0
M  V30 82 H  21.6337 38.6256 84.3777 0
M  V30 83 H  17.9558 39.3789 86.4392 0
M  V30 84 H  17.9109 41.1195 87.9104 0
M  V30 85 H  24.4082 45.5505 86.7132 0
M  V30 86 H  25.3835 44.4195 84.7904 0
M  V30 87 H  24.8999 42.0665 84.3425 0
M  V30 88 H  21.9927 46.0072 87.2002 0
M  V30 89 H  24.0570 46.7741 88.5275 0
M  V30 90 H  22.4531 46.8783 90.8044 0
M  V30 91 H  22.4847 48.4434 87.6915 0
M  V30 92 H  22.6395 49.9765 89.6000 0
M  V30 93 H  20.5318 49.2108 88.8331 0
M  V30 94 H  19.8879 48.4893 90.7985 0
M  V30 95 H  20.1637 47.2342 87.4764 0
M  V30 96 H  18.2337 46.1489 88.4438 0
M  V30 97 H  18.6760 46.6424 90.0683 0
M  V30 98 H  18.0308 48.3561 87.8902 0
M  V30 END ATOM
M  V30 BEGIN BOND
M  V30 1 1 1 2
M  V30 2 1 1 63
M  V30 3 1 2 3
M  V30 4 1 2 64
M  V30 5 1 2 65
M  V30 6 1 3 4
M  V30 7 1 3 6
M  V30 8 1 3 66
M  V30 9 1 4 5
M  V30 10 1 4 10
M  V30 11 1 4 67
M  V30 12 1 5 68
M  V30 13 1 6 7
M  V30 14 1 7 8
M  V30 15 1 7 12
M  V30 16 1 7 69
M  V30 17 1 8 9
M  V30 18 1 8 10
M  V30 19 1 8 70
M  V30 20 1 9 71
M  V30 21 1 10 11
M  V30 22 1 10 72
M  V30 23 1 11 73
M  V30 24 1 12 13
M  V30 25 2 13 14
M  V30 26 1 13 18
M  V30 27 1 14 15
M  V30 28 1 14 74
M  V30 29 2 15 16
M  V30 30 1 15 75
M  V30 31 1 16 17
M  V30 32 1 16 76
M  V30 33 2 17 18
M  V30 34 1 17 19
M  V30 35 1 18 22
M  V30 36 1 19 20
M  V30 37 1 19 32
M  V30 38 1 19 77
M  V30 39 2 20 21
M  V30 40 1 20 31
M  V30 41 1 21 22
M  V30 42 1 21 24
M  V30 43 2 22 23
M  V30 44 1 24 25
M  V30 45 2 24 26
M  V30 46 1 25 78
M  V30 47 1 26 27
M  V30 48 1 26 79
M  V30 49 1 27 28
M  V30 50 2 27 31
M  V30 51 1 28 29
M  V30 52 2 28 30
M  V30 53 1 31 80
M  V30 54 1 32 33
M  V30 55 1 32 46
M  V30 56 1 32 81
M  V30 57 2 33 34
M  V30 58 1 33 42
M  V30 59 1 34 35
M  V30 60 1 34 82
M  V30 61 1 35 36
M  V30 62 2 35 39
M  V30 63 1 36 37
M  V30 64 2 36 38
M  V30 65 1 39 40
M  V30 66 1 39 83
M  V30 67 1 40 41
M  V30 68 2 40 42
M  V30 69 1 41 84
M  V30 70 1 42 43
M  V30 71 2 43 44
M  V30 72 1 43 45
M  V30 73 2 45 46
M  V30 74 1 45 47
M  V30 75 1 46 50
M  V30 76 2 47 48
M  V30 77 1 47 51
M  V30 78 1 48 49
M  V30 79 1 48 85
M  V30 80 2 49 50
M  V30 81 1 49 86
M  V30 82 1 50 87
M  V30 83 1 51 52
M  V30 84 1 52 53
M  V30 85 1 52 60
M  V30 86 1 52 88
M  V30 87 1 53 54
M  V30 88 1 53 55
M  V30 89 1 53 89
M  V30 90 1 54 90
M  V30 91 1 55 56
M  V30 92 1 55 57
M  V30 93 1 55 91
M  V30 94 1 56 92
M  V30 95 1 57 58
M  V30 96 1 57 59
M  V30 97 1 57 93
M  V30 98 1 58 94
M  V30 99 1 59 60
M  V30 100 1 59 61
M  V30 101 1 59 95
M  V30 102 1 61 62
M  V30 103 1 61 96
M  V30 104 1 61 97
M  V30 105 1 62 98
M  V30 END BOND
M  V30 END CTAB
M  END
> <s_m_entry_id>
302

> <s_m_entry_name>
result.5422

> <s_m_Source_Path>
D:\OneDrive - zju.edu.cn\DOC\A-Finished\LCK_VS\Planet\LCK-8617

> <s_m_Source_File>
glide-dock_SP_top1262_2_pv.maegz

> <i_m_Source_File_Index>
302

> <PLANET_affinity>
7.319

> <i_lp_mmshare_version>
54117

> <i_f3d_flags>
0

> <s_epik_input>
W09IXVtDSDJdW0NAQEhdMVtDQEhdKFtPSF0pW0NASF0oW09IXSlbQ0BIXShbT0hdKVtDQEBIXShPMSlPYyhbY0hdW2NIXVtjSF0yKWMoYzIzKUMoPU8pYzRjKFtjSF1jKEMoPU8pW09IXSlbY0hdYzRbT0hdKVtDQEBIXTNbQ0BASF01YyhjNkMoPU8pYyhjNTcpYyhbT0hdKVtjSF1jKFtjSF03KUMoPU8pW09IXSlbY0hdW2NIXVtjSF1jNk9bQ0BASF04W0NASF0oW09IXSlbQ0BIXShbT0hdKVtDQEhdKFtPSF0pW0NAQEhdKE84KVtDSDJdW09IXQ==

> <s_epik_cmdline>
J2VwaWtfcHl0aG9uJywgJy1waCcsICc3LjAnLCAnLXRuJywgJzgnLCAnLW1hJywgJzUwMCcsICctaW1hZScsICc8aW5maWxlLm1hZT4nLCAnLW9tYWUnLCAnPG91dGZpbGUubWFlPic=

> <r_epik_Ionization_Penalty>
  0.0105

> <r_epik_Ionization_Penalty_Charging>
  0.0005

> <r_epik_Ionization_Penalty_Neutral>
  0.0100

> <r_epik_State_Penalty>
  0.0076

> <r_epik_Charging_Adjusted_Penalty>
0.00807926

> <i_epik_Tot_Q>
-2

> <i_epik_Tot_abs_Q>
2

> <s_epik_Chemistry_Notes>
This compound contains an acetal/aminal-like group ( X-CH(R)-Y where X, Y are N, S, or O) that may be acid/base labile, releasing an aldehyde.

> <s_lp_Force_Field>
S-OPLS

> <r_lp_Energy>
87.0389

> <b_lp_Chiralities_Consistent>
1

> <s_lp_Variant>
OC1C(O)C(OC2=C(C(C(C(O)=CC(C(O)=O)=C3)=C3C4C5C(C=CC=C6OC7C(O)C(O)C(O)C(CO)O7)...-1

> <s_i_glide_gridfile>
glide-grid_1

> <i_i_glide_lignum>
2214

> <i_i_glide_rotatable_bonds>
19

> <r_i_docking_score>
-8.38388493789371

> <r_i_glide_ligand_efficiency>
-0.135223950611189

> <r_i_glide_ligand_efficiency_sa>
-0.535201738815579

> <r_i_glide_ligand_efficiency_ln>
-1.63519898412415

> <r_i_glide_gscore>
-8.39148493789371

> <r_i_glide_lipo>
-1.59546778051721

> <r_i_glide_hbond>
-0.303041182072505

> <r_i_glide_metal>
0

> <r_i_glide_rewards>
-0.954986575208265

> <r_i_glide_evdw>
-46.4550285339355

> <r_i_glide_ecoul>
-22.0872592926025

> <r_i_glide_erotb>
0.207396918139478

> <r_i_glide_esite>
-0.109545997648051

> <r_i_glide_emodel>
-100.494456242

> <r_i_glide_energy>
-68.5422878265381

> <r_i_glide_einternal>
21.5755290985107

> <i_i_glide_confnum>
130

> <i_i_glide_posenum>
26

> <r_i_glide_eff_state_penalty>
0.0076

> <s_m_subgroup_title>
glide-dock_SP_top1262_2_pv

> <s_m_subgroupid>
glide-dock_SP_top1262_2_pv

> <b_m_subgroup_collapsed>
0

$$$$
O=C1CC2(CCN(C(C3=CC(OC)=C4C(N(C5CC5)C=C4C)=C3)=O)CC2)OC6=CC=C(C7=CN=CC(C(O)=O...
                    3D
 Schrodinger Suite 2021-3.
  0  0  0     0  0            999 V3000
M  V30 BEGIN CTAB
M  V30 COUNTS 72 78 0 0 0
M  V30 BEGIN ATOM
M  V30 1 O  18.0919 38.3554 83.2000 0 CHG=-1
M  V30 2 C  17.8700 38.5041 84.4218 0
M  V30 3 O  16.8829 39.1341 84.8532 0
M  V30 4 C  18.8623 37.9569 85.4067 0
M  V30 5 C  20.2178 37.8018 85.0687 0
M  V30 6 C  18.4868 37.6109 86.7166 0
M  V30 7 N  19.3545 37.1310 87.6420 0
M  V30 8 C  20.6566 37.0148 87.2818 0
M  V30 9 C  21.1438 37.3555 86.0166 0
M  V30 10 C  22.5938 37.2930 85.7121 0
M  V30 11 C  23.0730 36.5990 84.5955 0
M  V30 12 C  23.5076 37.9567 86.5374 0
M  V30 13 C  24.8781 37.8797 86.3023 0
M  V30 14 C  25.3452 37.1597 85.2099 0
M  V30 15 O  26.7182 37.1566 85.0071 0
M  V30 16 C  24.4473 36.5351 84.3243 0
M  V30 17 C  24.9569 35.9566 83.0496 0
M  V30 18 O  24.2175 35.5565 82.1521 0
M  V30 19 C  26.4771 35.9366 82.9582 0
M  V30 20 C  27.0989 37.2000 83.6215 0
M  V30 21 C  28.6310 37.0962 83.5149 0
M  V30 22 C  29.3804 38.1849 84.2990 0
M  V30 23 N  28.9132 39.4964 83.7908 0
M  V30 24 C  27.4480 39.7362 83.8917 0
M  V30 25 C  26.7187 38.6161 83.1006 0
M  V30 26 C  29.7278 40.4576 83.2596 0
M  V30 27 O  29.2788 41.5283 82.8434 0
M  V30 28 C  31.2212 40.2172 83.1275 0
M  V30 29 C  31.8550 40.4414 81.8976 0
M  V30 30 C  33.2350 40.2461 81.7266 0
M  V30 31 O  33.9526 40.4387 80.5622 0
M  V30 32 C  33.2975 40.9817 79.4291 0
M  V30 33 C  31.9734 39.8246 84.2395 0
M  V30 34 C  33.3358 39.5654 84.0563 0
M  V30 35 C  33.9985 39.7850 82.8138 0
M  V30 36 N  34.2743 39.0523 84.9315 0
M  V30 37 C  33.9977 38.6099 86.2859 0
M  V30 38 C  32.9377 37.5408 86.4429 0
M  V30 39 C  34.3799 37.2019 86.7083 0
M  V30 40 C  35.4971 39.0193 84.3088 0
M  V30 41 C  35.3931 39.4571 83.0032 0
M  V30 42 C  36.4999 39.5496 81.9785 0
M  V30 43 H  20.5667 38.0812 84.0838 0
M  V30 44 H  17.4624 37.7197 87.0473 0
M  V30 45 H  21.3267 36.6503 88.0439 0
M  V30 46 H  22.3652 36.1268 83.9249 0
M  V30 47 H  23.1528 38.5244 87.3861 0
M  V30 48 H  25.5728 38.3846 86.9576 0
M  V30 49 H  26.7858 35.8877 81.9143 0
M  V30 50 H  26.8117 35.0671 83.5231 0
M  V30 51 H  28.9441 37.1084 82.4711 0
M  V30 52 H  28.9585 36.1286 83.8925 0
M  V30 53 H  30.4414 37.9917 84.1656 0
M  V30 54 H  29.1435 38.1203 85.3628 0
M  V30 55 H  27.1839 39.6722 84.9482 0
M  V30 56 H  27.1394 40.7269 83.5542 0
M  V30 57 H  25.6471 38.7604 83.1966 0
M  V30 58 H  26.8828 38.7411 82.0436 0
M  V30 59 H  31.2600 40.7755 81.0596 0
M  V30 60 H  34.0165 41.0906 78.6193 0
M  V30 61 H  32.4878 40.3564 79.0763 0
M  V30 62 H  32.8841 41.9566 79.6436 0
M  V30 63 H  31.5110 39.6864 85.2066 0
M  V30 64 H  34.0434 39.4112 87.0241 0
M  V30 65 H  32.2270 37.6785 87.2505 0
M  V30 66 H  32.4597 37.1389 85.5488 0
M  V30 67 H  34.9058 36.5580 86.0012 0
M  V30 68 H  34.6998 37.0308 87.7364 0
M  V30 69 H  36.3568 38.6547 84.8523 0
M  V30 70 H  36.2998 38.9117 81.1167 0
M  V30 71 H  37.4664 39.2487 82.3847 0
M  V30 72 H  36.6116 40.5677 81.6034 0
M  V30 END ATOM
M  V30 BEGIN BOND
M  V30 1 1 1 2
M  V30 2 2 2 3
M  V30 3 1 2 4
M  V30 4 2 4 5
M  V30 5 1 4 6
M  V30 6 1 5 9
M  V30 7 1 5 43
M  V30 8 2 6 7
M  V30 9 1 6 44
M  V30 10 1 7 8
M  V30 11 2 8 9
M  V30 12 1 8 45
M  V30 13 1 9 10
M  V30 14 2 10 11
M  V30 15 1 10 12
M  V30 16 1 11 16
M  V30 17 1 11 46
M  V30 18 2 12 13
M  V30 19 1 12 47
M  V30 20 1 13 14
M  V30 21 1 13 48
M  V30 22 1 14 15
M  V30 23 2 14 16
M  V30 24 1 15 20
M  V30 25 1 16 17
M  V30 26 2 17 18
M  V30 27 1 17 19
M  V30 28 1 19 20
M  V30 29 1 19 49
M  V30 30 1 19 50
M  V30 31 1 20 21
M  V30 32 1 20 25
M  V30 33 1 21 22
M  V30 34 1 21 51
M  V30 35 1 21 52
M  V30 36 1 22 23
M  V30 37 1 22 53
M  V30 38 1 22 54
M  V30 39 1 23 24
M  V30 40 1 23 26
M  V30 41 1 24 25
M  V30 42 1 24 55
M  V30 43 1 24 56
M  V30 44 1 25 57
M  V30 45 1 25 58
M  V30 46 2 26 27
M  V30 47 1 26 28
M  V30 48 2 28 29
M  V30 49 1 28 33
M  V30 50 1 29 30
M  V30 51 1 29 59
M  V30 52 1 30 31
M  V30 53 2 30 35
M  V30 54 1 31 32
M  V30 55 1 32 60
M  V30 56 1 32 61
M  V30 57 1 32 62
M  V30 58 2 33 34
M  V30 59 1 33 63
M  V30 60 1 34 35
M  V30 61 1 34 36
M  V30 62 1 35 41
M  V30 63 1 36 37
M  V30 64 1 36 40
M  V30 65 1 37 38
M  V30 66 1 37 39
M  V30 67 1 37 64
M  V30 68 1 38 39
M  V30 69 1 38 65
M  V30 70 1 38 66
M  V30 71 1 39 67
M  V30 72 1 39 68
M  V30 73 2 40 41
M  V30 74 1 40 69
M  V30 75 1 41 42
M  V30 76 1 42 70
M  V30 77 1 42 71
M  V30 78 1 42 72
M  V30 END BOND
M  V30 END CTAB
M  END
> <s_m_entry_id>
306

> <s_m_entry_name>
result.5413

> <s_m_Source_Path>
D:\OneDrive - zju.edu.cn\DOC\A-Finished\LCK_VS\Planet\LCK-8617

> <s_m_Source_File>
glide-dock_SP_top1262_2_pv.maegz

> <i_m_Source_File_Index>
306

> <PLANET_affinity>
8.567

> <i_lp_mmshare_version>
54117

> <i_f3d_flags>
0

> <s_epik_input>
W09IXUMoPU8pYzFbY0hdYyhbY0hdbltjSF0xKS1jKFtjSF1bY0hdMilbY0hdYyhDKD1PKVtDSDJdMyljMk9DMzRbQ0gyXVtDSDJdTihbQ0gyXVtDSDJdNClDKD1PKWMoW2NIXTUpW2NIXWMoT1tDSDNdKWMoYzU2KWMoW0NIM10pW2NIXW42W0NIXTdbQ0gyXVtDSDJdNw==

> <s_epik_cmdline>
J2VwaWtfcHl0aG9uJywgJy1waCcsICc3LjAnLCAnLXRuJywgJzgnLCAnLW1hJywgJzUwMCcsICctaW1hZScsICc8aW5maWxlLm1hZT4nLCAnLW9tYWUnLCAnPG91dGZpbGUubWFlPic=

> <r_epik_Ionization_Penalty>
  0.0097

> <r_epik_Ionization_Penalty_Charging>
  0.0002

> <r_epik_Ionization_Penalty_Neutral>
  0.0096

> <r_epik_State_Penalty>
  0.0073

> <r_epik_Charging_Adjusted_Penalty>
0.0074471

> <i_epik_Tot_Q>
-1

> <i_epik_Tot_abs_Q>
1

> <s_lp_Force_Field>
S-OPLS

> <r_lp_Energy>
57.1925

> <b_lp_Chiralities_Consistent>
1

> <s_lp_Variant>
O=C1CC2(CCN(C(C3=CC(OC)=C4C(N(C5CC5)C=C4C)=C3)=O)CC2)OC6=CC=C(C7=CN=CC(C(O)=O...-1

> <s_i_glide_gridfile>
glide-grid_1

> <i_i_glide_lignum>
758

> <i_i_glide_rotatable_bonds>
6

> <r_i_docking_score>
-8.37952764121996

> <r_i_glide_ligand_efficiency>
-0.19951256288619

> <r_i_glide_ligand_efficiency_sa>
-0.69351098371794

> <r_i_glide_ligand_efficiency_ln>
-1.76870240357878

> <r_i_glide_gscore>
-8.38682764121996

> <r_i_glide_lipo>
-3.51279265194277

> <r_i_glide_hbond>
-0.733701663447624

> <r_i_glide_metal>
0

> <r_i_glide_rewards>
-0.922619182042558

> <r_i_glide_evdw>
-45.477596282959

> <r_i_glide_ecoul>
-7.10453033447266

> <r_i_glide_erotb>
0.176798028436982

> <r_i_glide_esite>
-0.0549528079051394

> <r_i_glide_emodel>
-73.0167362906445

> <r_i_glide_energy>
-52.5821266174316

> <r_i_glide_einternal>
5.97189331054688

> <i_i_glide_confnum>
1

> <i_i_glide_posenum>
212

> <r_i_glide_eff_state_penalty>
0.0073

> <r_lp_tautomer_probability>
0.99995

> <s_m_subgroup_title>
glide-dock_SP_top1262_2_pv

> <s_m_subgroupid>
glide-dock_SP_top1262_2_pv

> <b_m_subgroup_collapsed>
0

$$$$
NC(C1=NN(C2=C1CCN(C2=O)C3=CC=C(C=C3)N4CCCCC4=O)C5=CC=C(C=C5)OC)=O
                    3D
 Schrodinger Suite 2021-3.
  0  0  0     0  0            999 V3000
M  V30 BEGIN CTAB
M  V30 COUNTS 59 63 0 0 0
M  V30 BEGIN ATOM
M  V30 1 C  29.0745 40.2647 85.9116 0
M  V30 2 C  29.1631 41.5512 86.4326 0
M  V30 3 C  28.3956 42.5879 85.9009 0
M  V30 4 O  28.5591 43.8297 86.4833 0
M  V30 5 C  27.8734 44.9521 85.9356 0
M  V30 6 C  27.5197 42.3225 84.8394 0
M  V30 7 C  27.4261 41.0384 84.3119 0
M  V30 8 C  28.1995 40.0068 84.8512 0
M  V30 9 N  28.1193 38.7096 84.3011 0
M  V30 10 N  29.2513 38.1628 83.8484 0
M  V30 11 C  28.9366 36.9944 83.3428 0
M  V30 12 C  29.9455 36.1072 82.8237 0
M  V30 13 O  31.0301 35.9569 83.3790 0
M  V30 14 N  29.6822 35.5533 81.6435 0
M  V30 15 C  27.5490 36.7563 83.4834 0
M  V30 16 C  27.0332 37.8675 84.1368 0
M  V30 17 C  26.6337 35.6278 83.0748 0
M  V30 18 C  25.1437 36.0404 83.2484 0
M  V30 19 N  24.8519 36.9829 84.3788 0
M  V30 20 C  25.6643 38.0919 84.5629 0
M  V30 21 O  25.2621 39.1368 85.0804 0
M  V30 22 C  23.4880 37.0216 84.8454 0
M  V30 23 C  22.4221 36.5829 84.0408 0
M  V30 24 C  21.0988 36.7552 84.4433 0
M  V30 25 C  20.7983 37.3312 85.6844 0
M  V30 26 C  21.8515 37.6823 86.5342 0
M  V30 27 C  23.1716 37.5257 86.1218 0
M  V30 28 N  19.4559 37.5573 86.0889 0
M  V30 29 C  19.0785 36.9055 87.3770 0
M  V30 30 C  17.7290 37.3834 87.9400 0
M  V30 31 C  16.6791 37.3636 86.8435 0
M  V30 32 C  17.1041 38.3320 85.7245 0
M  V30 33 C  18.5734 38.2174 85.2575 0
M  V30 34 O  18.8978 38.7536 84.1933 0
M  V30 35 H  29.6815 39.4763 86.3355 0
M  V30 36 H  29.8428 41.7513 87.2484 0
M  V30 37 H  28.1449 45.8520 86.4895 0
M  V30 38 H  26.7906 44.8339 86.0109 0
M  V30 39 H  28.1460 45.1134 84.8903 0
M  V30 40 H  26.9066 43.0984 84.4066 0
M  V30 41 H  26.7447 40.8498 83.4948 0
M  V30 42 H  28.7606 35.5731 81.2285 0
M  V30 43 H  30.4212 35.0680 81.1476 0
M  V30 44 H  26.8082 35.3270 82.0433 0
M  V30 45 H  26.8434 34.7280 83.6485 0
M  V30 46 H  24.5549 35.1284 83.3699 0
M  V30 47 H  24.7884 36.5033 82.3259 0
M  V30 48 H  22.5925 36.1655 83.0608 0
M  V30 49 H  20.3079 36.4610 83.7689 0
M  V30 50 H  21.6546 38.1195 87.5019 0
M  V30 51 H  23.9551 37.8416 86.7964 0
M  V30 52 H  19.0297 35.8318 87.1898 0
M  V30 53 H  19.8505 37.0585 88.1307 0
M  V30 54 H  17.4270 36.7565 88.7775 0
M  V30 55 H  17.8257 38.3907 88.3454 0
M  V30 56 H  15.6905 37.6194 87.2418 0
M  V30 57 H  16.5707 36.3539 86.4436 0
M  V30 58 H  16.9650 39.3644 86.0436 0
M  V30 59 H  16.4815 38.2059 84.8431 0
M  V30 END ATOM
M  V30 BEGIN BOND
M  V30 1 2 1 2
M  V30 2 1 1 8
M  V30 3 1 1 35
M  V30 4 1 2 3
M  V30 5 1 2 36
M  V30 6 1 3 4
M  V30 7 2 3 6
M  V30 8 1 4 5
M  V30 9 1 5 37
M  V30 10 1 5 38
M  V30 11 1 5 39
M  V30 12 1 6 7
M  V30 13 1 6 40
M  V30 14 2 7 8
M  V30 15 1 7 41
M  V30 16 1 8 9
M  V30 17 1 9 10
M  V30 18 1 9 16
M  V30 19 2 10 11
M  V30 20 1 11 12
M  V30 21 1 11 15
M  V30 22 2 12 13
M  V30 23 1 12 14
M  V30 24 1 14 42
M  V30 25 1 14 43
M  V30 26 2 15 16
M  V30 27 1 15 17
M  V30 28 1 16 20
M  V30 29 1 17 18
M  V30 30 1 17 44
M  V30 31 1 17 45
M  V30 32 1 18 19
M  V30 33 1 18 46
M  V30 34 1 18 47
M  V30 35 1 19 20
M  V30 36 1 19 22
M  V30 37 2 20 21
M  V30 38 2 22 23
M  V30 39 1 22 27
M  V30 40 1 23 24
M  V30 41 1 23 48
M  V30 42 2 24 25
M  V30 43 1 24 49
M  V30 44 1 25 26
M  V30 45 1 25 28
M  V30 46 2 26 27
M  V30 47 1 26 50
M  V30 48 1 27 51
M  V30 49 1 28 29
M  V30 50 1 28 33
M  V30 51 1 29 30
M  V30 52 1 29 52
M  V30 53 1 29 53
M  V30 54 1 30 31
M  V30 55 1 30 54
M  V30 56 1 30 55
M  V30 57 1 31 32
M  V30 58 1 31 56
M  V30 59 1 31 57
M  V30 60 1 32 33
M  V30 61 1 32 58
M  V30 62 1 32 59
M  V30 63 2 33 34
M  V30 END BOND
M  V30 END CTAB
M  END
> <s_m_entry_id>
308

> <s_m_entry_name>
result.3967

> <s_m_Source_Path>
D:\OneDrive - zju.edu.cn\DOC\A-Finished\LCK_VS\Planet\LCK-8617

> <s_m_Source_File>
glide-dock_SP_top1262_2_pv.maegz

> <i_m_Source_File_Index>
308

> <PLANET_affinity>
8.342

> <i_lp_mmshare_version>
54117

> <i_f3d_flags>
0

> <s_epik_input>
W0NIM11PYzFbY0hdW2NIXWMoW2NIXVtjSF0xKS1uKG5jMkMoPU8pW05IMl0pYyhjMjMpQyg9TylOKFtDSDJdW0NIMl0zKWM0W2NIXVtjSF1jKFtjSF1bY0hdNClONVtDSDJdW0NIMl1bQ0gyXVtDSDJdQzU9Tw==

> <s_epik_cmdline>
J2VwaWtfcHl0aG9uJywgJy1waCcsICc3LjAnLCAnLXRuJywgJzgnLCAnLW1hJywgJzUwMCcsICctaW1hZScsICc8aW5maWxlLm1hZT4nLCAnLW9tYWUnLCAnPG91dGZpbGUubWFlPic=

> <r_epik_Ionization_Penalty>
  0.0000

> <r_epik_Ionization_Penalty_Charging>
  0.0000

> <r_epik_Ionization_Penalty_Neutral>
  0.0000

> <r_epik_State_Penalty>
  0.0000

> <r_epik_Charging_Adjusted_Penalty>
0

> <i_epik_Tot_Q>
0

> <i_epik_Tot_abs_Q>
0

> <s_lp_Force_Field>
S-OPLS

> <r_lp_Energy>
66.7318

> <b_lp_Chiralities_Consistent>
1

> <s_lp_Variant>
NC(C1=NN(C2=C1CCN(C2=O)C3=CC=C(C=C3)N4CCCCC4=O)C5=CC=C(C=C5)OC)=O-1

> <s_i_glide_gridfile>
glide-grid_1

> <i_i_glide_lignum>
923

> <i_i_glide_rotatable_bonds>
5

> <r_i_docking_score>
-8.37883646857684

> <r_i_glide_ligand_efficiency>
-0.246436366722848

> <r_i_glide_ligand_efficiency_sa>
-0.798358160960852

> <r_i_glide_ligand_efficiency_ln>
-1.85111999431096

> <r_i_glide_gscore>
-8.37883646857684

> <r_i_glide_lipo>
-2.86812813453791

> <r_i_glide_hbond>
-0.74438258391356

> <r_i_glide_metal>
0

> <r_i_glide_rewards>
-1.86260014171445

> <r_i_glide_evdw>
-47.5072326660156

> <r_i_glide_ecoul>
-5.25869560241699

> <r_i_glide_erotb>
0.285895108220673

> <r_i_glide_esite>
-0.0254547429682596

> <r_i_glide_emodel>
-74.4167496670664

> <r_i_glide_energy>
-52.7659282684326

> <r_i_glide_einternal>
6.53598165512085

> <i_i_glide_confnum>
75

> <i_i_glide_posenum>
323

> <r_i_glide_eff_state_penalty>
0

> <r_lp_tautomer_probability>
1

> <s_m_subgroup_title>
glide-dock_SP_top1262_2_pv

> <s_m_subgroupid>
glide-dock_SP_top1262_2_pv

> <b_m_subgroup_collapsed>
0

$$$$
O=C1NC2=C(N1C3CCN(C(N[C@@H]4CC[C@@H](C5=CC=CC(F)=C5F)CN(CC(F)(F)F)C4=O)=O)CC3...
                    3D
 Schrodinger Suite 2021-3.
  0  0  0     0  0            999 V3000
M  V30 BEGIN CTAB
M  V30 COUNTS 67 71 0 0 0
M  V30 BEGIN ATOM
M  V30 1 N  25.2175 35.1500 82.3317 0
M  V30 2 C  26.4952 35.5002 82.6427 0
M  V30 3 C  26.8149 36.3571 83.6991 0
M  V30 4 C  25.7807 36.8381 84.5099 0
M  V30 5 C  24.4702 36.4708 84.1875 0
M  V30 6 C  24.2467 35.6522 83.1240 0
M  V30 7 N  23.2302 36.8022 84.6982 0
M  V30 8 C  22.2412 36.2393 83.9398 0
M  V30 9 O  21.0197 36.3542 84.0435 0
M  V30 10 N  22.8906 35.4981 83.0180 0
M  V30 11 C  23.0264 37.6771 85.8613 0
M  V30 12 C  23.5634 39.1150 85.6919 0
M  V30 13 C  23.5653 39.8758 87.0235 0
M  V30 14 N  22.1678 39.8943 87.4956 0
M  V30 15 C  21.5563 38.5810 87.7983 0
M  V30 16 C  21.6342 37.7086 86.5367 0
M  V30 17 C  21.5339 41.0232 87.8978 0
M  V30 18 O  20.4357 40.9970 88.4434 0
M  V30 19 N  22.1328 42.1984 87.6168 0
M  V30 20 C  21.8217 43.4987 88.2396 0 CFG=2
M  V30 21 C  22.4835 44.7016 87.5202 0
M  V30 22 C  24.0124 44.6470 87.3642 0
M  V30 23 C  24.8499 44.5026 88.6537 0 CFG=2
M  V30 24 C  24.4558 43.2995 89.5417 0
M  V30 25 N  23.2061 43.4012 90.3168 0
M  V30 26 C  21.9406 43.4339 89.7949 0
M  V30 27 O  20.9195 43.4519 90.4879 0
M  V30 28 C  23.3515 43.4036 91.7870 0
M  V30 29 C  23.5051 42.0069 92.4254 0
M  V30 30 F  23.5695 42.1104 93.7522 0
M  V30 31 F  22.4826 41.2035 92.1331 0
M  V30 32 F  24.6182 41.3972 92.0172 0
M  V30 33 C  25.0678 45.8184 89.4265 0
M  V30 34 C  23.9905 46.4819 90.0325 0
M  V30 35 C  24.1807 47.6755 90.7273 0
M  V30 36 C  25.4560 48.2262 90.8286 0
M  V30 37 C  26.5397 47.5816 90.2363 0
M  V30 38 F  27.7754 48.1231 90.3406 0
M  V30 39 C  26.3515 46.3847 89.5391 0
M  V30 40 F  27.4274 45.7832 88.9773 0
M  V30 41 H  27.2833 35.0728 82.0428 0
M  V30 42 H  27.8437 36.6119 83.9088 0
M  V30 43 H  26.0153 37.4750 85.3488 0
M  V30 44 H  22.4245 34.9014 82.3473 0
M  V30 45 H  23.6806 37.2118 86.5991 0
M  V30 46 H  22.9744 39.6540 84.9472 0
M  V30 47 H  24.5799 39.1185 85.3056 0
M  V30 48 H  24.0158 40.8606 86.8959 0
M  V30 49 H  24.1641 39.3388 87.7608 0
M  V30 50 H  22.0834 38.1053 88.6221 0
M  V30 51 H  20.4960 38.6621 88.0433 0
M  V30 52 H  21.3073 36.6979 86.7859 0
M  V30 53 H  20.8980 38.1031 85.8342 0
M  V30 54 H  22.6442 42.2422 86.7492 0
M  V30 55 H  20.7539 43.6166 88.0441 0
M  V30 56 H  22.1809 45.6339 87.9965 0
M  V30 57 H  22.0600 44.7758 86.5165 0
M  V30 58 H  24.3572 45.5170 86.8023 0
M  V30 59 H  24.2476 43.8043 86.7118 0
M  V30 60 H  25.8362 44.2335 88.2735 0
M  V30 61 H  24.3349 42.4518 88.8684 0
M  V30 62 H  25.2800 42.9797 90.1806 0
M  V30 63 H  24.2232 44.0061 92.0449 0
M  V30 64 H  22.5091 43.9113 92.2599 0
M  V30 65 H  22.9915 46.0802 89.9782 0
M  V30 66 H  23.3381 48.1724 91.1859 0
M  V30 67 H  25.6071 49.1519 91.3652 0
M  V30 END ATOM
M  V30 BEGIN BOND
M  V30 1 2 1 2
M  V30 2 1 1 6
M  V30 3 1 2 3
M  V30 4 1 2 41
M  V30 5 2 3 4
M  V30 6 1 3 42
M  V30 7 1 4 5
M  V30 8 1 4 43
M  V30 9 2 5 6
M  V30 10 1 5 7
M  V30 11 1 6 10
M  V30 12 1 7 8
M  V30 13 1 7 11
M  V30 14 2 8 9
M  V30 15 1 8 10
M  V30 16 1 10 44
M  V30 17 1 11 12
M  V30 18 1 11 16
M  V30 19 1 11 45
M  V30 20 1 12 13
M  V30 21 1 12 46
M  V30 22 1 12 47
M  V30 23 1 13 14
M  V30 24 1 13 48
M  V30 25 1 13 49
M  V30 26 1 14 15
M  V30 27 1 14 17
M  V30 28 1 15 16
M  V30 29 1 15 50
M  V30 30 1 15 51
M  V30 31 1 16 52
M  V30 32 1 16 53
M  V30 33 2 17 18
M  V30 34 1 17 19
M  V30 35 1 19 20
M  V30 36 1 19 54
M  V30 37 1 20 21
M  V30 38 1 20 26
M  V30 39 1 20 55
M  V30 40 1 21 22
M  V30 41 1 21 56
M  V30 42 1 21 57
M  V30 43 1 22 23
M  V30 44 1 22 58
M  V30 45 1 22 59
M  V30 46 1 23 24
M  V30 47 1 23 33
M  V30 48 1 23 60
M  V30 49 1 24 25
M  V30 50 1 24 61
M  V30 51 1 24 62
M  V30 52 1 25 26
M  V30 53 1 25 28
M  V30 54 2 26 27
M  V30 55 1 28 29
M  V30 56 1 28 63
M  V30 57 1 28 64
M  V30 58 1 29 30
M  V30 59 1 29 31
M  V30 60 1 29 32
M  V30 61 2 33 34
M  V30 62 1 33 39
M  V30 63 1 34 35
M  V30 64 1 34 65
M  V30 65 2 35 36
M  V30 66 1 35 66
M  V30 67 1 36 37
M  V30 68 1 36 67
M  V30 69 1 37 38
M  V30 70 2 37 39
M  V30 71 1 39 40
M  V30 END BOND
M  V30 END CTAB
M  END
> <s_m_entry_id>
316

> <s_m_entry_name>
result.1592

> <s_m_Source_Path>
D:\OneDrive - zju.edu.cn\DOC\A-Finished\LCK_VS\Planet\LCK-8617

> <s_m_Source_File>
glide-dock_SP_top1262_2_pv.maegz

> <i_m_Source_File_Index>
316

> <PLANET_affinity>
7.413

> <i_lp_mmshare_version>
54117

> <i_f3d_flags>
0

> <s_epik_input>
W2NIXTFbY0hdW2NIXW5jKGMxMilbbkhdYyg9TyluMltDSF0zW0NIMl1bQ0gyXU4oW0NIMl1bQ0gyXTMpQyg9TylbTkhdW0NAQEhdNFtDSDJdW0NIMl1bQ0BIXShbQ0gyXU4oQzQ9TylbQ0gyXUMoRikoRilGKWM1W2NIXVtjSF1bY0hdYyhGKWM1Rg==

> <s_epik_cmdline>
J2VwaWtfcHl0aG9uJywgJy1waCcsICc3LjAnLCAnLXRuJywgJzgnLCAnLW1hJywgJzUwMCcsICctaW1hZScsICc8aW5maWxlLm1hZT4nLCAnLW9tYWUnLCAnPG91dGZpbGUubWFlPic=

> <r_epik_Ionization_Penalty>
  0.0003

> <r_epik_Ionization_Penalty_Charging>
  0.0002

> <r_epik_Ionization_Penalty_Neutral>
  0.0000

> <r_epik_State_Penalty>
  0.0000

> <r_epik_Charging_Adjusted_Penalty>
0.000226348

> <i_epik_Tot_Q>
0

> <i_epik_Tot_abs_Q>
0

> <s_lp_Force_Field>
S-OPLS

> <r_lp_Energy>
57.1932

> <b_lp_Chiralities_Consistent>
1

> <s_lp_Variant>
O=C1NC2=C(N1C3CCN(C(N[C@@H]4CC[C@@H](C5=CC=CC(F)=C5F)CN(CC(F)(F)F)C4=O)=O)CC3...-1

> <s_i_glide_gridfile>
glide-grid_1

> <i_i_glide_lignum>
2070

> <i_i_glide_rotatable_bonds>
7

> <r_i_docking_score>
-8.35034167825812

> <r_i_glide_ligand_efficiency>
-0.208758541956453

> <r_i_glide_ligand_efficiency_sa>
-0.713944169939781

> <r_i_glide_ligand_efficiency_ln>
-1.7808821403868

> <r_i_glide_gscore>
-8.35034167825812

> <r_i_glide_lipo>
-1.41712409895685

> <r_i_glide_hbond>
-0.970284199613454

> <r_i_glide_metal>
0

> <r_i_glide_rewards>
-2.61486565888317

> <r_i_glide_evdw>
-31.3301544189453

> <r_i_glide_ecoul>
-12.5683279037476

> <r_i_glide_erotb>
0.212082851567509

> <r_i_glide_esite>
-0.108393665862753

> <r_i_glide_emodel>
-61.977210236041

> <r_i_glide_energy>
-43.8984823226929

> <r_i_glide_einternal>
9.54364490509033

> <i_i_glide_confnum>
128

> <i_i_glide_posenum>
382

> <r_i_glide_eff_state_penalty>
0

> <r_lp_tautomer_probability>
1

> <s_m_subgroup_title>
glide-dock_SP_top1262_2_pv

> <s_m_subgroupid>
glide-dock_SP_top1262_2_pv

> <b_m_subgroup_collapsed>
0

$$$$
O=C(NCCOCCOCCOCCNC(NCCCN(C)C/C=C/C(NC1=CC=C(C(NC2=CC=CC(NC3=NC=C(Cl)C(C4=CNC5...
                    3D
 Schrodinger Suite 2021-3.
  0  0  0     0  0            999 V3000
M  V30 BEGIN CTAB
M  V30 COUNTS 140 146 0 0 0
M  V30 BEGIN ATOM
M  V30 1 N  34.1124 30.4219 73.3340 0
M  V30 2 C  33.8765 31.1600 72.2423 0
M  V30 3 O  33.7949 30.7717 71.0816 0
M  V30 4 N  33.5340 32.3547 72.7432 0
M  V30 5 C  33.4060 32.4548 74.1898 0 CFG=1
M  V30 6 C  33.6569 30.9970 74.5832 0 CFG=2
M  V30 7 C  34.4195 33.3922 74.9200 0 CFG=1
M  V30 8 S  35.7711 32.3342 75.4964 0
M  V30 9 C  34.6452 30.9560 75.7571 0
M  V30 10 C  34.9532 34.5686 74.0682 0
M  V30 11 C  35.7665 35.6277 74.8488 0
M  V30 12 C  35.8879 36.9590 74.0753 0
M  V30 13 C  36.2150 38.1791 74.9661 0
M  V30 14 C  37.7000 38.3556 75.3006 0
M  V30 15 O  38.4846 38.7567 74.4406 0
M  V30 16 N  38.0592 38.1080 76.5709 0
M  V30 17 C  39.3981 38.2894 77.1336 0
M  V30 18 C  39.3662 39.1015 78.4417 0
M  V30 19 O  38.6514 38.3582 79.4250 0
M  V30 20 C  38.3132 39.0973 80.5966 0
M  V30 21 C  37.7678 38.1313 81.6573 0
M  V30 22 O  38.8351 37.3455 82.1782 0
M  V30 23 C  38.4146 36.1320 82.7940 0
M  V30 24 C  39.5852 35.5061 83.5738 0
M  V30 25 O  39.2244 34.2955 84.2339 0
M  V30 26 C  38.4817 34.4648 85.4393 0
M  V30 27 C  38.4524 33.1584 86.2525 0
M  V30 28 N  37.6831 32.0826 85.6324 0
M  V30 29 C  38.1652 31.1398 84.8172 0
M  V30 30 O  39.3283 31.0932 84.4193 0
M  V30 31 N  37.2063 30.2804 84.4445 0
M  V30 32 C  37.2693 29.3900 83.2806 0
M  V30 33 C  36.4203 29.9003 82.0965 0
M  V30 34 C  36.8361 31.2901 81.5659 0
M  V30 35 N  35.6220 32.2472 81.6342 0 CHG=1 CFG=2
M  V30 36 C  34.7476 32.1535 80.3618 0
M  V30 37 C  36.0213 33.7003 81.9645 0
M  V30 38 C  34.8327 34.5734 82.3166 0
M  V30 39 C  34.4777 34.8947 83.5805 0
M  V30 40 C  33.3532 35.7359 83.9212 0
M  V30 41 O  33.4276 36.5111 84.8730 0
M  V30 42 N  32.2577 35.5698 83.1415 0
M  V30 43 C  31.0189 36.2267 83.2427 0
M  V30 44 C  30.8519 37.4909 83.8277 0
M  V30 45 C  29.5806 38.0448 83.9350 0
M  V30 46 C  28.4642 37.3381 83.4731 0
M  V30 47 C  28.6401 36.1001 82.8431 0
M  V30 48 C  29.9142 35.5575 82.7145 0
M  V30 49 C  27.0933 37.9355 83.6448 0
M  V30 50 O  26.9100 39.1352 83.4385 0
M  V30 51 N  26.1541 37.0565 84.0611 0
M  V30 52 C  24.8277 37.3128 84.4426 0
M  V30 53 C  23.9502 36.2258 84.4418 0
M  V30 54 C  22.6188 36.4007 84.8182 0
M  V30 55 C  22.1545 37.6612 85.1943 0
M  V30 56 C  23.0142 38.7648 85.2068 0
M  V30 57 C  24.3560 38.5703 84.8437 0
M  V30 58 N  22.4705 40.0129 85.5725 0
M  V30 59 C  22.9827 41.3180 85.6515 0
M  V30 60 N  22.0815 42.2817 85.9674 0
M  V30 61 C  22.5432 43.5566 86.0426 0
M  V30 62 C  23.8802 43.8889 85.8041 0
M  V30 63 Cl 24.3963 45.5359 85.9134 0
M  V30 64 C  24.7488 42.8304 85.4897 0
M  V30 65 N  24.2967 41.5508 85.4208 0
M  V30 66 C  26.2192 42.9479 85.2582 0
M  V30 67 C  26.8852 43.9130 84.5177 0
M  V30 68 N  28.2374 43.6769 84.5442 0
M  V30 69 C  27.2491 42.0728 85.7783 0
M  V30 70 C  28.5055 42.5650 85.3093 0
M  V30 71 C  27.2433 40.9266 86.5897 0
M  V30 72 C  28.4562 40.3168 86.9152 0
M  V30 73 C  29.6659 40.8251 86.4508 0
M  V30 74 C  29.7198 41.9525 85.6316 0
M  V30 75 H  34.7040 29.6059 73.3117 0
M  V30 76 H  33.6000 33.1882 72.1801 0
M  V30 77 H  32.3804 32.7367 74.4437 0
M  V30 78 H  32.7402 30.4620 74.8441 0
M  V30 79 H  33.9432 33.8003 75.8166 0
M  V30 80 H  35.1750 30.0053 75.8201 0
M  V30 81 H  34.1318 31.1020 76.7105 0
M  V30 82 H  34.0821 35.0528 73.6207 0
M  V30 83 H  35.5533 34.1917 73.2371 0
M  V30 84 H  36.7580 35.2441 75.0868 0
M  V30 85 H  35.2839 35.8127 75.8093 0
M  V30 86 H  34.9332 37.1562 73.5907 0
M  V30 87 H  36.6036 36.8587 73.2564 0
M  V30 88 H  35.6004 38.1672 75.8685 0
M  V30 89 H  35.9214 39.0903 74.4438 0
M  V30 90 H  37.3637 37.7488 77.2091 0
M  V30 91 H  40.0849 38.7626 76.4292 0
M  V30 92 H  39.8060 37.3013 77.3323 0
M  V30 93 H  38.8862 40.0700 78.2599 0
M  V30 94 H  40.3797 39.2973 78.7920 0
M  V30 95 H  37.5617 39.8565 80.3577 0
M  V30 96 H  39.1893 39.6171 80.9959 0
M  V30 97 H  37.0054 37.5007 81.1972 0
M  V30 98 H  37.2855 38.6790 82.4713 0
M  V30 99 H  38.1145 35.4490 81.9995 0
M  V30 100 H  37.5484 36.2904 83.4400 0
M  V30 101 H  40.0214 36.2305 84.2680 0
M  V30 102 H  40.3762 35.2604 82.8635 0
M  V30 103 H  37.4635 34.7914 85.2158 0
M  V30 104 H  38.9465 35.2377 86.0582 0
M  V30 105 H  38.0141 33.3586 87.2330 0
M  V30 106 H  39.4741 32.8244 86.4439 0
M  V30 107 H  36.7025 32.0348 85.8955 0
M  V30 108 H  36.3569 30.2606 84.9984 0
M  V30 109 H  36.9308 28.3987 83.5880 0
M  V30 110 H  38.3067 29.2741 82.9529 0
M  V30 111 H  35.3699 29.8861 82.3918 0
M  V30 112 H  36.4947 29.1815 81.2788 0
M  V30 113 H  37.1887 31.2761 80.5316 0
M  V30 114 H  37.6300 31.7343 82.1671 0
M  V30 115 H  35.3303 32.5369 79.5201 0
M  V30 116 H  34.4837 31.1058 80.2066 0
M  V30 117 H  33.8452 32.7513 80.5135 0
M  V30 118 H  36.5654 34.0764 81.0960 0
M  V30 119 H  36.7019 33.6327 82.8174 0
M  V30 120 H  34.2741 34.9593 81.4719 0
M  V30 121 H  35.0435 34.5379 84.4306 0
M  V30 122 H  32.2769 34.8058 82.4867 0
M  V30 123 H  31.6901 38.0529 84.2052 0
M  V30 124 H  29.4674 39.0104 84.4021 0
M  V30 125 H  27.8018 35.5546 82.4273 0
M  V30 126 H  30.0291 34.6052 82.2209 0
M  V30 127 H  26.4393 36.0915 84.1202 0
M  V30 128 H  24.2843 35.2445 84.1420 0
M  V30 129 H  21.9471 35.5515 84.8127 0
M  V30 130 H  21.1167 37.7747 85.4724 0
M  V30 131 H  25.0469 39.3886 84.8712 0
M  V30 132 H  21.4854 39.9898 85.7782 0
M  V30 133 H  21.8132 44.3236 86.2681 0
M  V30 134 H  26.4919 44.7474 83.9517 0
M  V30 135 H  28.9143 44.2508 84.0542 0
M  V30 136 H  26.3136 40.5234 86.9656 0
M  V30 137 H  28.4625 39.4373 87.5464 0
M  V30 138 H  30.5824 40.3206 86.7287 0
M  V30 139 H  30.6605 42.3375 85.2666 0
M  V30 140 H  35.0648 31.9349 82.4193 0
M  V30 END ATOM
M  V30 BEGIN BOND
M  V30 1 1 1 2
M  V30 2 1 1 6
M  V30 3 1 1 75
M  V30 4 2 2 3
M  V30 5 1 2 4
M  V30 6 1 4 5
M  V30 7 1 4 76
M  V30 8 1 5 6
M  V30 9 1 5 7
M  V30 10 1 5 77
M  V30 11 1 6 9
M  V30 12 1 6 78
M  V30 13 1 7 8
M  V30 14 1 7 10
M  V30 15 1 7 79
M  V30 16 1 8 9
M  V30 17 1 9 80
M  V30 18 1 9 81
M  V30 19 1 10 11
M  V30 20 1 10 82
M  V30 21 1 10 83
M  V30 22 1 11 12
M  V30 23 1 11 84
M  V30 24 1 11 85
M  V30 25 1 12 13
M  V30 26 1 12 86
M  V30 27 1 12 87
M  V30 28 1 13 14
M  V30 29 1 13 88
M  V30 30 1 13 89
M  V30 31 2 14 15
M  V30 32 1 14 16
M  V30 33 1 16 17
M  V30 34 1 16 90
M  V30 35 1 17 18
M  V30 36 1 17 91
M  V30 37 1 17 92
M  V30 38 1 18 19
M  V30 39 1 18 93
M  V30 40 1 18 94
M  V30 41 1 19 20
M  V30 42 1 20 21
M  V30 43 1 20 95
M  V30 44 1 20 96
M  V30 45 1 21 22
M  V30 46 1 21 97
M  V30 47 1 21 98
M  V30 48 1 22 23
M  V30 49 1 23 24
M  V30 50 1 23 99
M  V30 51 1 23 100
M  V30 52 1 24 25
M  V30 53 1 24 101
M  V30 54 1 24 102
M  V30 55 1 25 26
M  V30 56 1 26 27
M  V30 57 1 26 103
M  V30 58 1 26 104
M  V30 59 1 27 28
M  V30 60 1 27 105
M  V30 61 1 27 106
M  V30 62 1 28 29
M  V30 63 1 28 107
M  V30 64 2 29 30
M  V30 65 1 29 31
M  V30 66 1 31 32
M  V30 67 1 31 108
M  V30 68 1 32 33
M  V30 69 1 32 109
M  V30 70 1 32 110
M  V30 71 1 33 34
M  V30 72 1 33 111
M  V30 73 1 33 112
M  V30 74 1 34 35
M  V30 75 1 34 113
M  V30 76 1 34 114
M  V30 77 1 35 36
M  V30 78 1 35 37
M  V30 79 1 35 140
M  V30 80 1 36 115
M  V30 81 1 36 116
M  V30 82 1 36 117
M  V30 83 1 37 38
M  V30 84 1 37 118
M  V30 85 1 37 119
M  V30 86 2 38 39
M  V30 87 1 38 120
M  V30 88 1 39 40
M  V30 89 1 39 121
M  V30 90 2 40 41
M  V30 91 1 40 42
M  V30 92 1 42 43
M  V30 93 1 42 122
M  V30 94 2 43 44
M  V30 95 1 43 48
M  V30 96 1 44 45
M  V30 97 1 44 123
M  V30 98 2 45 46
M  V30 99 1 45 124
M  V30 100 1 46 47
M  V30 101 1 46 49
M  V30 102 2 47 48
M  V30 103 1 47 125
M  V30 104 1 48 126
M  V30 105 2 49 50
M  V30 106 1 49 51
M  V30 107 1 51 52
M  V30 108 1 51 127
M  V30 109 2 52 53
M  V30 110 1 52 57
M  V30 111 1 53 54
M  V30 112 1 53 128
M  V30 113 2 54 55
M  V30 114 1 54 129
M  V30 115 1 55 56
M  V30 116 1 55 130
M  V30 117 2 56 57
M  V30 118 1 56 58
M  V30 119 1 57 131
M  V30 120 1 58 59
M  V30 121 1 58 132
M  V30 122 2 59 60
M  V30 123 1 59 65
M  V30 124 1 60 61
M  V30 125 2 61 62
M  V30 126 1 61 133
M  V30 127 1 62 63
M  V30 128 1 62 64
M  V30 129 2 64 65
M  V30 130 1 64 66
M  V30 131 2 66 67
M  V30 132 1 66 69
M  V30 133 1 67 68
M  V30 134 1 67 134
M  V30 135 1 68 70
M  V30 136 1 68 135
M  V30 137 2 69 70
M  V30 138 1 69 71
M  V30 139 1 70 74
M  V30 140 2 71 72
M  V30 141 1 71 136
M  V30 142 1 72 73
M  V30 143 1 72 137
M  V30 144 2 73 74
M  V30 145 1 73 138
M  V30 146 1 74 139
M  V30 END BOND
M  V30 END CTAB
M  END
> <s_m_entry_id>
323

> <s_m_entry_name>
result.473

> <s_m_Source_Path>
D:\OneDrive - zju.edu.cn\DOC\A-Finished\LCK_VS\Planet\LCK-8617

> <s_m_Source_File>
glide-dock_SP_top1262_2_pv.maegz

> <i_m_Source_File_Index>
323

> <PLANET_affinity>
8.511

> <i_lp_mmshare_version>
54117

> <i_f3d_flags>
0

> <s_epik_input>
Tz1DKFtOSF0xKVtOSF1bQ0BIXShbQ0BIXTEyKVtDSDJdU1tDQEhdMltDSDJdW0NIMl1bQ0gyXVtDSDJdQyg9TylbTkhdW0NIMl1bQ0gyXU9bQ0gyXVtDSDJdT1tDSDJdW0NIMl1PW0NIMl1bQ0gyXVtOSF1DKD1PKVtOSF1bQ0gyXVtDSDJdW0NIMl1OKFtDSDNdKVtDSDJdL1tDSF09W0NIXS9DKD1PKVtOSF1jM1tjSF1bY0hdYyhbY0hdW2NIXTMpQyg9TylbTkhdYzRbY0hdW2NIXVtjSF1jKFtjSF00KVtOSF1jNW5bY0hdYyhDbCljKG41KS1jNltjSF1bbkhdYyhjNjcpW2NIXVtjSF1bY0hdW2NIXTc=

> <s_epik_cmdline>
J2VwaWtfcHl0aG9uJywgJy1waCcsICc3LjAnLCAnLXRuJywgJzgnLCAnLW1hJywgJzUwMCcsICctaW1hZScsICc8aW5maWxlLm1hZT4nLCAnLW9tYWUnLCAnPG91dGZpbGUubWFlPic=

> <r_epik_Ionization_Penalty>
  0.0483

> <r_epik_Ionization_Penalty_Charging>
  0.0482

> <r_epik_Ionization_Penalty_Neutral>
  0.0001

> <r_epik_State_Penalty>
  0.1313

> <r_epik_Charging_Adjusted_Penalty>
0.17942

> <i_epik_Tot_Q>
1

> <i_epik_Tot_abs_Q>
1

> <s_lp_Force_Field>
S-OPLS

> <r_lp_Energy>
74.033

> <b_lp_Chiralities_Consistent>
1

> <s_lp_Variant>
O=C(NCCOCCOCCOCCNC(NCCCN(C)C/C=C/C(NC1=CC=C(C(NC2=CC=CC(NC3=NC=C(Cl)C(C4=CNC5...-1

> <s_i_glide_gridfile>
glide-grid_1

> <i_i_glide_lignum>
788

> <i_i_glide_rotatable_bonds>
35

> <r_i_docking_score>
-8.33337837170977

> <r_i_glide_ligand_efficiency>
-0.112613221239321

> <r_i_glide_ligand_efficiency_sa>
-0.47278819123153

> <r_i_glide_ligand_efficiency_ln>
-1.57113048676324

> <r_i_glide_gscore>
-8.46467837170977

> <r_i_glide_lipo>
-2.36791840971558

> <r_i_glide_hbond>
-0.382715330075057

> <r_i_glide_metal>
0

> <r_i_glide_rewards>
-0.341037048844402

> <r_i_glide_evdw>
-63.3143730163574

> <r_i_glide_ecoul>
-16.0730514526367

> <r_i_glide_erotb>
0.460836330101476

> <r_i_glide_esite>
-0.257167544462825

> <r_i_glide_emodel>
-116.641626757818

> <r_i_glide_energy>
-79.3874244689941

> <r_i_glide_einternal>
24.3115863800049

> <i_i_glide_confnum>
147

> <i_i_glide_posenum>
315

> <r_i_glide_eff_state_penalty>
0.1313

> <r_lp_tautomer_probability>
1

> <s_m_subgroup_title>
glide-dock_SP_top1262_2_pv

> <s_m_subgroupid>
glide-dock_SP_top1262_2_pv

> <b_m_subgroup_collapsed>
0

$$$$
N=S(CC1=CC(NC2=NC=C(F)C(C3=CC=C(F)C=C3OC)=C2)=NC=C1)(C)=O
                    3D
 Schrodinger Suite 2021-3.
  0  0  0     0  0            999 V3000
M  V30 BEGIN CTAB
M  V30 COUNTS 47 49 0 0 0
M  V30 BEGIN ATOM
M  V30 1 N  29.2835 42.2701 85.2233 0
M  V30 2 S  28.8734 41.1704 84.2498 0 CFG=2
M  V30 3 O  29.2827 41.1371 82.8439 0
M  V30 4 C  26.9966 41.2019 84.3688 0
M  V30 5 C  29.4251 39.6078 85.1521 0
M  V30 6 C  29.3859 38.3603 84.2829 0
M  V30 7 C  28.1696 37.7281 83.9894 0
M  V30 8 C  28.1572 36.5433 83.2349 0
M  V30 9 N  29.3383 36.0651 82.7831 0 CHG=1
M  V30 10 C  30.5295 36.6401 83.0308 0
M  V30 11 C  30.5763 37.8045 83.7989 0
M  V30 12 N  26.9957 35.8106 82.8477 0
M  V30 13 C  25.6419 35.8914 83.2798 0
M  V30 14 N  24.8443 35.1934 82.4415 0
M  V30 15 C  23.5064 35.2451 82.6421 0
M  V30 16 C  22.9181 35.9564 83.6814 0
M  V30 17 F  21.5659 36.0117 83.7709 0
M  V30 18 C  23.7460 36.6373 84.5889 0
M  V30 19 C  25.1377 36.5816 84.3923 0
M  V30 20 C  23.1632 37.4575 85.6861 0
M  V30 21 C  23.5254 38.8071 85.7762 0
M  V30 22 C  22.9722 39.6340 86.7477 0
M  V30 23 C  22.0435 39.1198 87.6432 0
M  V30 24 F  21.4955 39.9255 88.5803 0
M  V30 25 C  21.6833 37.7735 87.5774 0
M  V30 26 C  22.2352 36.9265 86.6044 0
M  V30 27 O  21.9196 35.5811 86.5056 0
M  V30 28 C  21.0205 34.9777 87.4320 0
M  V30 29 H  29.8877 42.9485 84.7636 0
M  V30 30 H  26.7048 40.9956 85.3972 0
M  V30 31 H  26.5818 40.4556 83.6930 0
M  V30 32 H  26.6482 42.1938 84.0831 0
M  V30 33 H  30.4390 39.8019 85.4969 0
M  V30 34 H  28.8054 39.5027 86.0400 0
M  V30 35 H  27.2639 38.1931 84.3304 0
M  V30 36 H  31.3978 36.1474 82.6129 0
M  V30 37 H  31.5273 38.2705 84.0104 0
M  V30 38 H  27.1379 35.1521 82.0945 0
M  V30 39 H  22.8835 34.7573 81.9093 0
M  V30 40 H  25.7825 37.0677 85.1026 0
M  V30 41 H  24.2275 39.2296 85.0705 0
M  V30 42 H  23.2476 40.6781 86.7981 0
M  V30 43 H  20.9670 37.4024 88.2923 0
M  V30 44 H  20.8167 33.9592 87.1064 0
M  V30 45 H  21.4542 34.9192 88.4336 0
M  V30 46 H  20.0601 35.4947 87.4728 0
M  V30 47 H  29.3309 35.2238 82.2221 0
M  V30 END ATOM
M  V30 BEGIN BOND
M  V30 1 2 1 2
M  V30 2 1 1 29
M  V30 3 2 2 3
M  V30 4 1 2 4
M  V30 5 1 2 5
M  V30 6 1 4 30
M  V30 7 1 4 31
M  V30 8 1 4 32
M  V30 9 1 5 6
M  V30 10 1 5 33
M  V30 11 1 5 34
M  V30 12 2 6 7
M  V30 13 1 6 11
M  V30 14 1 7 8
M  V30 15 1 7 35
M  V30 16 2 8 9
M  V30 17 1 8 12
M  V30 18 1 9 10
M  V30 19 1 9 47
M  V30 20 2 10 11
M  V30 21 1 10 36
M  V30 22 1 11 37
M  V30 23 1 12 13
M  V30 24 1 12 38
M  V30 25 2 13 14
M  V30 26 1 13 19
M  V30 27 1 14 15
M  V30 28 2 15 16
M  V30 29 1 15 39
M  V30 30 1 16 17
M  V30 31 1 16 18
M  V30 32 2 18 19
M  V30 33 1 18 20
M  V30 34 1 19 40
M  V30 35 2 20 21
M  V30 36 1 20 26
M  V30 37 1 21 22
M  V30 38 1 21 41
M  V30 39 2 22 23
M  V30 40 1 22 42
M  V30 41 1 23 24
M  V30 42 1 23 25
M  V30 43 2 25 26
M  V30 44 1 25 43
M  V30 45 1 26 27
M  V30 46 1 27 28
M  V30 47 1 28 44
M  V30 48 1 28 45
M  V30 49 1 28 46
M  V30 END BOND
M  V30 END CTAB
M  END
> <s_m_entry_id>
324

> <s_m_entry_name>
result.7643

> <s_m_Source_Path>
D:\OneDrive - zju.edu.cn\DOC\A-Finished\LCK_VS\Planet\LCK-8617

> <s_m_Source_File>
glide-dock_SP_top1262_2_pv.maegz

> <i_m_Source_File_Index>
324

> <PLANET_affinity>
7.739

> <i_lp_mmshare_version>
54117

> <i_f3d_flags>
0

> <s_epik_input>
W05IXT1bU0BdKD1PKShbQ0gzXSlbQ0gyXWMxW2NIXWMobltjSF1bY0hdMSlbTkhdYzJuW2NIXWMoRiljKFtjSF0yKS1jM1tjSF1bY0hdYyhGKVtjSF1jM09bQ0gzXQ==

> <s_epik_cmdline>
J2VwaWtfcHl0aG9uJywgJy1waCcsICc3LjAnLCAnLXRuJywgJzgnLCAnLW1hJywgJzUwMCcsICctaW1hZScsICc8aW5maWxlLm1hZT4nLCAnLW9tYWUnLCAnPG91dGZpbGUubWFlPic=

> <r_epik_Ionization_Penalty>
  0.3592

> <r_epik_Ionization_Penalty_Charging>
  0.3537

> <r_epik_Ionization_Penalty_Neutral>
  0.0055

> <r_epik_State_Penalty>
  0.3501

> <r_epik_Charging_Adjusted_Penalty>
0.703719

> <i_epik_Tot_Q>
1

> <i_epik_Tot_abs_Q>
1

> <s_lp_Force_Field>
S-OPLS

> <r_lp_Energy>
27.158

> <b_lp_Chiralities_Consistent>
1

> <s_lp_Variant>
N=S(CC1=CC(NC2=NC=C(F)C(C3=CC=C(F)C=C3OC)=C2)=NC=C1)(C)=O-1

> <s_i_glide_gridfile>
glide-grid_1

> <i_i_glide_lignum>
1587

> <i_i_glide_rotatable_bonds>
6

> <r_i_docking_score>
-8.33240410198604

> <r_i_glide_ligand_efficiency>
-0.297585860785216

> <r_i_glide_ligand_efficiency_sa>
-0.903645942042801

> <r_i_glide_ligand_efficiency_ln>
-1.92336351675352

> <r_i_glide_gscore>
-8.68250410198604

> <r_i_glide_lipo>
-3.15109783564806

> <r_i_glide_hbond>
-0.675993905862539

> <r_i_glide_metal>
0

> <r_i_glide_rewards>
-1.59123919007386

> <r_i_glide_evdw>
-36.3196258544922

> <r_i_glide_ecoul>
-13.1606922149658

> <r_i_glide_erotb>
0.597771125913692

> <r_i_glide_esite>
-0.0718591713457827

> <r_i_glide_emodel>
-76.1063009520893

> <r_i_glide_energy>
-49.480318069458

> <r_i_glide_einternal>
4.85205888748169

> <i_i_glide_confnum>
184

> <i_i_glide_posenum>
218

> <r_i_glide_eff_state_penalty>
0.3501

> <r_lp_tautomer_probability>
0.999994

> <s_m_subgroup_title>
glide-dock_SP_top1262_2_pv

> <s_m_subgroupid>
glide-dock_SP_top1262_2_pv

> <b_m_subgroup_collapsed>
0

$$$$
OC1=CC(O)=C2C(OC(C3=CC=C(OC)C=C3)=C(O[C@H](O[C@@H](C)[C@H](O)[C@H]4O)[C@@H]4O...
                    3D
 Schrodinger Suite 2021-3.
  0  0  0     0  0            999 V3000
M  V30 BEGIN CTAB
M  V30 COUNTS 67 70 0 0 0
M  V30 BEGIN ATOM
M  V30 1 O  26.2038 34.7619 82.3269 0
M  V30 2 C  25.2884 35.4955 83.0234 0
M  V30 3 C  23.9551 35.1671 82.8446 0
M  V30 4 C  22.9726 35.8440 83.5465 0
M  V30 5 O  21.6829 35.5569 83.2439 0
M  V30 6 C  23.3014 36.8016 84.5066 0
M  V30 7 C  22.2035 37.5290 85.2935 0
M  V30 8 C  21.5436 36.6765 86.3707 0
M  V30 9 C  20.2682 36.7678 86.8098 0
M  V30 10 C  19.2447 37.7692 86.2917 0
M  V30 11 C  19.7329 35.8541 87.8995 0
M  V30 12 C  24.6530 37.1329 84.6674 0
M  V30 13 C  25.6563 36.5417 83.8805 0
M  V30 14 O  24.9533 38.0724 85.6310 0
M  V30 15 C  26.2128 38.5628 85.7046 0
M  V30 16 C  26.3024 39.5528 86.7917 0
M  V30 17 C  26.7385 40.8585 86.5639 0
M  V30 18 C  26.8805 41.7454 87.6284 0
M  V30 19 C  26.5711 41.3507 88.9288 0
M  V30 20 O  26.7575 42.2942 89.9199 0
M  V30 21 C  26.4580 41.9601 91.2707 0
M  V30 22 C  26.0969 40.0489 89.1535 0
M  V30 23 C  25.9684 39.1605 88.0893 0
M  V30 24 C  27.2220 38.1978 84.8841 0
M  V30 25 C  27.0581 37.0637 83.9505 0
M  V30 26 O  27.9501 36.5754 83.2535 0
M  V30 27 O  28.4662 38.7349 85.0430 0
M  V30 28 C  29.1568 39.1887 83.8982 0 CFG=2
M  V30 29 O  30.2796 38.3803 83.6444 0
M  V30 30 C  31.2213 38.3148 84.7247 0 CFG=1
M  V30 31 C  32.3311 37.3417 84.2932 0
M  V30 32 C  31.7570 39.7223 85.1090 0 CFG=2
M  V30 33 O  32.5947 39.6565 86.2590 0
M  V30 34 C  30.5780 40.7042 85.3120 0 CFG=1
M  V30 35 O  30.9641 42.0298 85.6393 0
M  V30 36 C  29.5972 40.6415 84.1154 0 CFG=1
M  V30 37 O  30.0834 41.1567 82.8800 0
M  V30 38 H  27.0949 35.1242 82.4262 0
M  V30 39 H  23.6797 34.3953 82.1416 0
M  V30 40 H  21.6439 34.8158 82.6279 0
M  V30 41 H  21.4616 37.8835 84.5787 0
M  V30 42 H  22.5953 38.4252 85.7769 0
M  V30 43 H  22.1905 35.9401 86.8254 0
M  V30 44 H  18.7771 38.3005 87.1219 0
M  V30 45 H  18.4612 37.2510 85.7345 0
M  V30 46 H  19.6758 38.5217 85.6349 0
M  V30 47 H  18.7536 35.4584 87.6428 0
M  V30 48 H  20.3997 35.0131 88.0931 0
M  V30 49 H  19.6077 36.4127 88.8255 0
M  V30 50 H  26.9695 41.1850 85.5636 0
M  V30 51 H  27.2375 42.7483 87.4458 0
M  V30 52 H  26.6481 42.8270 91.9024 0
M  V30 53 H  25.4086 41.6852 91.3968 0
M  V30 54 H  27.0908 41.1485 91.6343 0
M  V30 55 H  25.8419 39.7052 90.1435 0
M  V30 56 H  25.6192 38.1574 88.2762 0
M  V30 57 H  28.5643 39.0915 82.9860 0
M  V30 58 H  30.7186 37.8790 85.5922 0
M  V30 59 H  33.0710 37.1993 85.0802 0
M  V30 60 H  31.9143 36.3633 84.0503 0
M  V30 61 H  32.8529 37.7067 83.4084 0
M  V30 62 H  32.3833 40.0954 84.2945 0
M  V30 63 H  32.0449 39.5722 87.0488 0
M  V30 64 H  30.0419 40.3740 86.2042 0
M  V30 65 H  31.2689 42.4802 84.8419 0
M  V30 66 H  28.7102 41.2307 84.3388 0
M  V30 67 H  30.4834 42.0405 82.9985 0
M  V30 END ATOM
M  V30 BEGIN BOND
M  V30 1 1 1 2
M  V30 2 1 1 38
M  V30 3 2 2 3
M  V30 4 1 2 13
M  V30 5 1 3 4
M  V30 6 1 3 39
M  V30 7 1 4 5
M  V30 8 2 4 6
M  V30 9 1 5 40
M  V30 10 1 6 7
M  V30 11 1 6 12
M  V30 12 1 7 8
M  V30 13 1 7 41
M  V30 14 1 7 42
M  V30 15 2 8 9 CFG=2
M  V30 16 1 8 43
M  V30 17 1 9 10
M  V30 18 1 9 11
M  V30 19 1 10 44
M  V30 20 1 10 45
M  V30 21 1 10 46
M  V30 22 1 11 47
M  V30 23 1 11 48
M  V30 24 1 11 49
M  V30 25 2 12 13
M  V30 26 1 12 14
M  V30 27 1 13 25
M  V30 28 1 14 15
M  V30 29 1 15 16
M  V30 30 2 15 24
M  V30 31 2 16 17
M  V30 32 1 16 23
M  V30 33 1 17 18
M  V30 34 1 17 50
M  V30 35 2 18 19
M  V30 36 1 18 51
M  V30 37 1 19 20
M  V30 38 1 19 22
M  V30 39 1 20 21
M  V30 40 1 21 52
M  V30 41 1 21 53
M  V30 42 1 21 54
M  V30 43 2 22 23
M  V30 44 1 22 55
M  V30 45 1 23 56
M  V30 46 1 24 25
M  V30 47 1 24 27
M  V30 48 2 25 26
M  V30 49 1 27 28
M  V30 50 1 28 29
M  V30 51 1 28 36
M  V30 52 1 28 57
M  V30 53 1 29 30
M  V30 54 1 30 31
M  V30 55 1 30 32
M  V30 56 1 30 58
M  V30 57 1 31 59
M  V30 58 1 31 60
M  V30 59 1 31 61
M  V30 60 1 32 33
M  V30 61 1 32 34
M  V30 62 1 32 62
M  V30 63 1 33 63
M  V30 64 1 34 35
M  V30 65 1 34 36
M  V30 66 1 34 64
M  V30 67 1 35 65
M  V30 68 1 36 37
M  V30 69 1 36 66
M  V30 70 1 37 67
M  V30 END BOND
M  V30 END CTAB
M  END
> <s_m_entry_id>
325

> <s_m_entry_name>
result.3148

> <s_m_Source_Path>
D:\OneDrive - zju.edu.cn\DOC\A-Finished\LCK_VS\Planet\LCK-8617

> <s_m_Source_File>
glide-dock_SP_top1262_2_pv.maegz

> <i_m_Source_File_Index>
325

> <PLANET_affinity>
7.387

> <i_lp_mmshare_version>
54117

> <i_f3d_flags>
0

> <s_epik_input>
W0NIM11DKFtDSDNdKT1bQ0hdW0NIMl1jMWMoW09IXSlbY0hdYyhbT0hdKWMoYzEyKWMoPU8pYyhjKG8yKS1jM1tjSF1bY0hdYyhPW0NIM10pW2NIXVtjSF0zKU9bQ0BASF00T1tDQEBIXShbQ0gzXSlbQ0BIXShbT0hdKVtDQEBIXShbT0hdKVtDQEhdNFtPSF0=

> <s_epik_cmdline>
J2VwaWtfcHl0aG9uJywgJy1waCcsICc3LjAnLCAnLXRuJywgJzgnLCAnLW1hJywgJzUwMCcsICctaW1hZScsICc8aW5maWxlLm1hZT4nLCAnLW9tYWUnLCAnPG91dGZpbGUubWFlPic=

> <r_epik_Ionization_Penalty>
  0.0186

> <r_epik_Ionization_Penalty_Charging>
  0.0000

> <r_epik_Ionization_Penalty_Neutral>
  0.0186

> <r_epik_State_Penalty>
  0.0141

> <r_epik_Charging_Adjusted_Penalty>
0.0140955

> <i_epik_Tot_Q>
0

> <i_epik_Tot_abs_Q>
0

> <s_epik_Chemistry_Notes>
This compound contains an acetal/aminal-like group ( X-CH(R)-Y where X, Y are N, S, or O) that may be acid/base labile, releasing an aldehyde.

> <s_lp_Force_Field>
S-OPLS

> <r_lp_Energy>
30.9821

> <b_lp_Chiralities_Consistent>
1

> <s_lp_Variant>
OC1=CC(O)=C2C(OC(C3=CC=C(OC)C=C3)=C(O[C@H](O[C@@H](C)[C@H](O)[C@H]4O)[C@@H]4O...-1

> <s_i_glide_gridfile>
glide-grid_1

> <i_i_glide_lignum>
2117

> <i_i_glide_rotatable_bonds>
11

> <r_i_docking_score>
-8.33204165062665

> <r_i_glide_ligand_efficiency>
-0.225190314881801

> <r_i_glide_ligand_efficiency_sa>
-0.75038408712498

> <r_i_glide_ligand_efficiency_ln>
-1.80702450325091

> <r_i_glide_gscore>
-8.34614165062665

> <r_i_glide_lipo>
-3.70454367179829

> <r_i_glide_hbond>
-0.400648630534188

> <r_i_glide_metal>
0

> <r_i_glide_rewards>
-0.587661478693801

> <r_i_glide_evdw>
-38.0858573913574

> <r_i_glide_ecoul>
-14.2428503036499

> <r_i_glide_erotb>
0.387432545514989

> <r_i_glide_esite>
0

> <r_i_glide_emodel>
-76.1782438942682

> <r_i_glide_energy>
-52.3287076950073

> <r_i_glide_einternal>
9.08525276184082

> <i_i_glide_confnum>
62

> <i_i_glide_posenum>
46

> <r_i_glide_eff_state_penalty>
0.0141

> <r_lp_tautomer_probability>
1

> <s_m_subgroup_title>
glide-dock_SP_top1262_2_pv

> <s_m_subgroupid>
glide-dock_SP_top1262_2_pv

> <b_m_subgroup_collapsed>
0

$$$$
CC(C(C)(C)C)NCC1=CC=C(C(NC2=NC=C(SC3=CC(C(N4CCN(C(C)=O)CC4)=O)=C(OC)C=C3C)S2)...
                    3D
 Schrodinger Suite 2021-3.
  0  0  0     0  0            999 V3000
M  V30 BEGIN CTAB
M  V30 COUNTS 85 88 0 0 0
M  V30 BEGIN ATOM
M  V30 1 C  34.7877 37.4572 77.6289 0
M  V30 2 C  35.2581 36.1615 78.3370 0
M  V30 3 C  34.3262 34.9893 77.9220 0
M  V30 4 C  36.6751 35.8132 77.8170 0
M  V30 5 C  35.2836 36.3203 79.8996 0 CFG=1
M  V30 6 C  36.2532 37.3956 80.4514 0
M  V30 7 N  33.8587 36.6019 80.4323 0 CHG=1
M  V30 8 C  33.6560 36.4667 81.9512 0
M  V30 9 C  32.1930 36.5711 82.3280 0
M  V30 10 C  31.3551 35.4798 82.1129 0
M  V30 11 C  30.0076 35.5567 82.4394 0
M  V30 12 C  29.4820 36.7239 83.0045 0
M  V30 13 C  30.3389 37.8092 83.2436 0
M  V30 14 C  31.6861 37.7372 82.9021 0
M  V30 15 C  28.0286 36.8165 83.4033 0
M  V30 16 O  27.6723 37.7117 84.1742 0
M  V30 17 N  27.1782 35.9203 82.8405 0
M  V30 18 C  25.8343 35.7976 83.1713 0
M  V30 19 N  24.8967 35.5019 82.3088 0
M  V30 20 C  23.6943 35.5580 82.8570 0
M  V30 21 C  23.6410 35.9567 84.1941 0
M  V30 22 S  25.2643 35.9589 84.8003 0
M  V30 23 S  22.2445 36.3598 85.1963 0
M  V30 24 C  22.4511 38.1266 85.3916 0
M  V30 25 C  23.6469 38.6353 85.9103 0
M  V30 26 C  23.8897 40.0099 85.9726 0
M  V30 27 C  22.8752 40.9096 85.6184 0
M  V30 28 O  23.1399 42.2605 85.7553 0
M  V30 29 C  22.0833 43.1971 85.6360 0
M  V30 30 C  21.6484 40.3998 85.1567 0
M  V30 31 C  21.4324 39.0220 85.0295 0
M  V30 32 C  20.0883 38.5332 84.5053 0
M  V30 33 C  25.2605 40.5073 86.3693 0
M  V30 34 O  25.9672 41.0107 85.4932 0
M  V30 35 N  25.6754 40.3559 87.6572 0
M  V30 36 C  27.0349 40.7597 88.0681 0
M  V30 37 C  26.9128 41.9324 89.0728 0
M  V30 38 N  26.0436 41.5074 90.1886 0
M  V30 39 C  26.4795 41.5395 91.4757 0
M  V30 40 O  27.5942 41.9565 91.7898 0
M  V30 41 C  25.5797 41.0164 92.5980 0
M  V30 42 C  24.6867 41.0904 89.7874 0
M  V30 43 C  24.8035 39.9335 88.7677 0
M  V30 44 H  34.8829 37.3678 76.5446 0
M  V30 45 H  35.3843 38.3234 77.9162 0
M  V30 46 H  33.7433 37.6896 77.8388 0
M  V30 47 H  34.6257 34.0498 78.3898 0
M  V30 48 H  33.2832 35.1575 78.1876 0
M  V30 49 H  34.3430 34.8267 76.8429 0
M  V30 50 H  37.0962 34.9538 78.3410 0
M  V30 51 H  36.6624 35.5666 76.7538 0
M  V30 52 H  37.3713 36.6428 77.9308 0
M  V30 53 H  35.5297 35.3529 80.3440 0
M  V30 54 H  37.2726 37.2327 80.1055 0
M  V30 55 H  35.9643 38.4045 80.1565 0
M  V30 56 H  36.3108 37.3764 81.5394 0
M  V30 57 H  33.5645 37.5225 80.1384 0
M  V30 58 H  34.0635 35.4884 82.2174 0
M  V30 59 H  34.2580 37.2460 82.4201 0
M  V30 60 H  31.7379 34.5694 81.6725 0
M  V30 61 H  29.3955 34.6853 82.2548 0
M  V30 62 H  29.9687 38.7188 83.6984 0
M  V30 63 H  32.3275 38.5874 83.0868 0
M  V30 64 H  27.4691 35.5045 81.9651 0
M  V30 65 H  22.8281 35.3811 82.2358 0
M  V30 66 H  24.4175 37.9667 86.2522 0
M  V30 67 H  22.4612 44.1950 85.8585 0
M  V30 68 H  21.6834 43.2033 84.6216 0
M  V30 69 H  21.2834 42.9859 86.3466 0
M  V30 70 H  20.8543 41.0738 84.8770 0
M  V30 71 H  19.3696 39.3441 84.3849 0
M  V30 72 H  20.2152 38.0276 83.5474 0
M  V30 73 H  19.6517 37.8149 85.2004 0
M  V30 74 H  27.5157 39.9076 88.5514 0
M  V30 75 H  27.6664 41.0401 87.2225 0
M  V30 76 H  27.9006 42.2528 89.4041 0
M  V30 77 H  26.4476 42.7883 88.5826 0
M  V30 78 H  24.6581 41.5946 92.6573 0
M  V30 79 H  25.3358 39.9656 92.4398 0
M  V30 80 H  26.0831 41.0970 93.5624 0
M  V30 81 H  24.1952 41.9424 89.3161 0
M  V30 82 H  24.0613 40.7850 90.6255 0
M  V30 83 H  23.8133 39.6145 88.4431 0
M  V30 84 H  25.2826 39.0782 89.2432 0
M  V30 85 H  33.2277 35.9425 79.9928 0
M  V30 END ATOM
M  V30 BEGIN BOND
M  V30 1 1 1 2
M  V30 2 1 1 44
M  V30 3 1 1 45
M  V30 4 1 1 46
M  V30 5 1 2 3
M  V30 6 1 2 4
M  V30 7 1 2 5
M  V30 8 1 3 47
M  V30 9 1 3 48
M  V30 10 1 3 49
M  V30 11 1 4 50
M  V30 12 1 4 51
M  V30 13 1 4 52
M  V30 14 1 5 6
M  V30 15 1 5 7
M  V30 16 1 5 53
M  V30 17 1 6 54
M  V30 18 1 6 55
M  V30 19 1 6 56
M  V30 20 1 7 8
M  V30 21 1 7 57
M  V30 22 1 7 85
M  V30 23 1 8 9
M  V30 24 1 8 58
M  V30 25 1 8 59
M  V30 26 2 9 10
M  V30 27 1 9 14
M  V30 28 1 10 11
M  V30 29 1 10 60
M  V30 30 2 11 12
M  V30 31 1 11 61
M  V30 32 1 12 13
M  V30 33 1 12 15
M  V30 34 2 13 14
M  V30 35 1 13 62
M  V30 36 1 14 63
M  V30 37 2 15 16
M  V30 38 1 15 17
M  V30 39 1 17 18
M  V30 40 1 17 64
M  V30 41 2 18 19
M  V30 42 1 18 22
M  V30 43 1 19 20
M  V30 44 2 20 21
M  V30 45 1 20 65
M  V30 46 1 21 22
M  V30 47 1 21 23
M  V30 48 1 23 24
M  V30 49 2 24 25
M  V30 50 1 24 31
M  V30 51 1 25 26
M  V30 52 1 25 66
M  V30 53 2 26 27
M  V30 54 1 26 33
M  V30 55 1 27 28
M  V30 56 1 27 30
M  V30 57 1 28 29
M  V30 58 1 29 67
M  V30 59 1 29 68
M  V30 60 1 29 69
M  V30 61 2 30 31
M  V30 62 1 30 70
M  V30 63 1 31 32
M  V30 64 1 32 71
M  V30 65 1 32 72
M  V30 66 1 32 73
M  V30 67 2 33 34
M  V30 68 1 33 35
M  V30 69 1 35 36
M  V30 70 1 35 43
M  V30 71 1 36 37
M  V30 72 1 36 74
M  V30 73 1 36 75
M  V30 74 1 37 38
M  V30 75 1 37 76
M  V30 76 1 37 77
M  V30 77 1 38 39
M  V30 78 1 38 42
M  V30 79 2 39 40
M  V30 80 1 39 41
M  V30 81 1 41 78
M  V30 82 1 41 79
M  V30 83 1 41 80
M  V30 84 1 42 43
M  V30 85 1 42 81
M  V30 86 1 42 82
M  V30 87 1 43 83
M  V30 88 1 43 84
M  V30 END BOND
M  V30 END CTAB
M  END
> <s_m_entry_id>
326

> <s_m_entry_name>
result.8368

> <s_m_Source_Path>
D:\OneDrive - zju.edu.cn\DOC\A-Finished\LCK_VS\Planet\LCK-8617

> <s_m_Source_File>
glide-dock_SP_top1262_2_pv.maegz

> <i_m_Source_File_Index>
326

> <PLANET_affinity>
8.956

> <i_lp_mmshare_version>
54117

> <i_f3d_flags>
0

> <s_epik_input>
W0NIM11DKFtDSDNdKShbQ0gzXSlbQ0BASF0oW0NIM10pW05IXVtDSDJdYzFbY0hdW2NIXWMoW2NIXVtjSF0xKUMoPU8pW05IXWMybltjSF1jKHMyKVNjM1tjSF1jKGMoT1tDSDNdKVtjSF1jM1tDSDNdKUMoPU8pTjRbQ0gyXVtDSDJdTihDKD1PKVtDSDNdKVtDSDJdW0NIMl00

> <s_epik_cmdline>
J2VwaWtfcHl0aG9uJywgJy1waCcsICc3LjAnLCAnLXRuJywgJzgnLCAnLW1hJywgJzUwMCcsICctaW1hZScsICc8aW5maWxlLm1hZT4nLCAnLW9tYWUnLCAnPG91dGZpbGUubWFlPic=

> <r_epik_Ionization_Penalty>
  0.0157

> <r_epik_Ionization_Penalty_Charging>
  0.0129

> <r_epik_Ionization_Penalty_Neutral>
  0.0029

> <r_epik_State_Penalty>
  0.0100

> <r_epik_Charging_Adjusted_Penalty>
0.0228503

> <i_epik_Tot_Q>
1

> <i_epik_Tot_abs_Q>
1

> <s_lp_Force_Field>
S-OPLS

> <r_lp_Energy>
57.4044

> <b_lp_Chiralities_Consistent>
1

> <s_lp_Variant>
CC(C(C)(C)C)NCC1=CC=C(C(NC2=NC=C(SC3=CC(C(N4CCN(C(C)=O)CC4)=O)=C(OC)C=C3C)S2)...-1

> <s_i_glide_gridfile>
glide-grid_1

> <i_i_glide_lignum>
532

> <i_i_glide_rotatable_bonds>
13

> <r_i_docking_score>
-8.32789971392627

> <r_i_glide_ligand_efficiency>
-0.193672086370378

> <r_i_glide_ligand_efficiency_sa>
-0.678510410890363

> <r_i_glide_ligand_efficiency_ln>
-1.74911776685806

> <r_i_glide_gscore>
-8.33789971392627

> <r_i_glide_lipo>
-3.04651170848385

> <r_i_glide_hbond>
-0.366802702420286

> <r_i_glide_metal>
0

> <r_i_glide_rewards>
-1.53335971676033

> <r_i_glide_evdw>
-52.0014038085938

> <r_i_glide_ecoul>
-7.16850423812866

> <r_i_glide_erotb>
0.284120239887174

> <r_i_glide_esite>
0

> <r_i_glide_emodel>
-93.4928761980207

> <r_i_glide_energy>
-59.1699080467224

> <r_i_glide_einternal>
5.06076574325562

> <i_i_glide_confnum>
249

> <i_i_glide_posenum>
354

> <r_i_glide_eff_state_penalty>
0.01

> <r_lp_tautomer_probability>
0.999

> <s_m_subgroup_title>
glide-dock_SP_top1262_2_pv

> <s_m_subgroupid>
glide-dock_SP_top1262_2_pv

> <b_m_subgroup_collapsed>
0

$$$$
O=C1C(O[C@H](O[C@H](CO)[C@H](O)[C@@H]2O)[C@@H]2OC(C3=CC(O)=C(O)C(O)=C3)=O)=C(...
                    3D
 Schrodinger Suite 2021-3.
  0  0  0     0  0            999 V3000
M  V30 BEGIN CTAB
M  V30 COUNTS 67 71 0 0 0
M  V30 BEGIN ATOM
M  V30 1 C  20.7456 36.3470 87.2437 0
M  V30 2 C  19.4113 36.2669 87.6439 0
M  V30 3 C  18.4904 37.2218 87.2154 0
M  V30 4 O  17.1913 37.1431 87.6448 0
M  V30 5 C  18.8995 38.2389 86.3467 0
M  V30 6 O  18.0017 39.1575 85.8675 0
M  V30 7 C  20.2371 38.3222 85.9553 0
M  V30 8 C  21.1753 37.3940 86.4223 0
M  V30 9 C  22.5998 37.5205 86.0719 0
M  V30 10 O  22.9664 36.5980 85.1464 0
M  V30 11 C  23.4288 38.4623 86.5723 0
M  V30 12 C  24.8498 38.5124 86.1996 0
M  V30 13 O  25.6992 39.2319 86.7255 0
M  V30 14 C  25.2069 37.5759 85.0865 0
M  V30 15 C  24.2429 36.6642 84.6243 0
M  V30 16 C  26.4791 37.5564 84.4860 0
M  V30 17 O  27.4843 38.4015 84.8743 0
M  V30 18 C  26.7590 36.6623 83.4579 0
M  V30 19 C  25.7926 35.7644 83.0317 0
M  V30 20 C  24.5325 35.7620 83.6087 0
M  V30 21 O  26.0829 34.8775 82.0435 0
M  V30 22 O  23.0049 39.3757 87.4914 0
M  V30 23 C  22.6904 40.6746 87.0318 0 CFG=2
M  V30 24 O  22.5000 40.7671 85.6370 0
M  V30 25 C  22.1179 42.0796 85.2140 0 CFG=2
M  V30 26 C  21.5616 42.0528 83.7808 0
M  V30 27 O  22.4833 41.5572 82.8435 0
M  V30 28 C  23.2938 43.0573 85.4395 0 CFG=2
M  V30 29 O  24.4275 42.7565 84.6376 0
M  V30 30 C  23.6237 43.0921 86.9425 0 CFG=2
M  V30 31 O  24.7709 43.8837 87.2090 0
M  V30 32 C  23.7804 41.6611 87.5348 0 CFG=1
M  V30 33 O  23.9305 41.6376 88.9597 0
M  V30 34 C  22.9509 42.0578 89.8032 0
M  V30 35 O  21.8412 42.4608 89.4424 0
M  V30 36 C  23.3982 42.1102 91.2168 0
M  V30 37 C  22.9430 43.1460 92.0318 0
M  V30 38 C  23.2496 43.1683 93.3901 0
M  V30 39 O  22.8830 44.1957 94.0435 0 CHG=-1
M  V30 40 C  23.9342 42.0804 93.9779 0
M  V30 41 O  24.0828 41.9566 95.3459 0
M  V30 42 C  24.4597 41.0826 93.1447 0
M  V30 43 O  25.2089 40.0435 93.6433 0
M  V30 44 C  24.2177 41.1239 91.7718 0
M  V30 45 H  21.4524 35.6103 87.5993 0
M  V30 46 H  19.0936 35.4680 88.2990 0
M  V30 47 H  16.6194 37.8081 87.2534 0
M  V30 48 H  17.4966 39.6180 86.5525 0
M  V30 49 H  20.5514 39.1226 85.3007 0
M  V30 50 H  27.1899 38.9698 85.5965 0
M  V30 51 H  27.7413 36.6580 83.0087 0
M  V30 52 H  23.7790 35.0665 83.2719 0
M  V30 53 H  26.8829 35.1110 81.5536 0
M  V30 54 H  21.7046 40.8935 87.4451 0
M  V30 55 H  21.2834 42.4155 85.8352 0
M  V30 56 H  20.6592 41.4435 83.7341 0
M  V30 57 H  21.2822 43.0650 83.4956 0
M  V30 58 H  22.0775 41.5511 81.9743 0
M  V30 59 H  22.9807 44.0553 85.1362 0
M  V30 60 H  24.1774 42.8811 83.7141 0
M  V30 61 H  22.7949 43.6084 87.4272 0
M  V30 62 H  24.8879 44.4910 86.4740 0
M  V30 63 H  24.7312 41.2920 87.1626 0
M  V30 64 H  22.3545 43.9452 91.5956 0
M  V30 65 H  24.4048 41.0914 95.6313 0
M  V30 66 H  25.2086 39.9565 94.6058 0
M  V30 67 H  24.6286 40.3560 91.1379 0
M  V30 END ATOM
M  V30 BEGIN BOND
M  V30 1 2 1 2
M  V30 2 1 1 8
M  V30 3 1 1 45
M  V30 4 1 2 3
M  V30 5 1 2 46
M  V30 6 1 3 4
M  V30 7 2 3 5
M  V30 8 1 4 47
M  V30 9 1 5 6
M  V30 10 1 5 7
M  V30 11 1 6 48
M  V30 12 2 7 8
M  V30 13 1 7 49
M  V30 14 1 8 9
M  V30 15 1 9 10
M  V30 16 2 9 11
M  V30 17 1 10 15
M  V30 18 1 11 12
M  V30 19 1 11 22
M  V30 20 2 12 13
M  V30 21 1 12 14
M  V30 22 2 14 15
M  V30 23 1 14 16
M  V30 24 1 15 20
M  V30 25 1 16 17
M  V30 26 2 16 18
M  V30 27 1 17 50
M  V30 28 1 18 19
M  V30 29 1 18 51
M  V30 30 2 19 20
M  V30 31 1 19 21
M  V30 32 1 20 52
M  V30 33 1 21 53
M  V30 34 1 22 23
M  V30 35 1 23 24
M  V30 36 1 23 32
M  V30 37 1 23 54
M  V30 38 1 24 25
M  V30 39 1 25 26
M  V30 40 1 25 28
M  V30 41 1 25 55
M  V30 42 1 26 27
M  V30 43 1 26 56
M  V30 44 1 26 57
M  V30 45 1 27 58
M  V30 46 1 28 29
M  V30 47 1 28 30
M  V30 48 1 28 59
M  V30 49 1 29 60
M  V30 50 1 30 31
M  V30 51 1 30 32
M  V30 52 1 30 61
M  V30 53 1 31 62
M  V30 54 1 32 33
M  V30 55 1 32 63
M  V30 56 1 33 34
M  V30 57 2 34 35
M  V30 58 1 34 36
M  V30 59 2 36 37
M  V30 60 1 36 44
M  V30 61 1 37 38
M  V30 62 1 37 64
M  V30 63 1 38 39
M  V30 64 2 38 40
M  V30 65 1 40 41
M  V30 66 1 40 42
M  V30 67 1 41 65
M  V30 68 1 42 43
M  V30 69 2 42 44
M  V30 70 1 43 66
M  V30 71 1 44 67
M  V30 END BOND
M  V30 END CTAB
M  END
> <s_m_entry_id>
333

> <s_m_entry_name>
result.5981

> <s_m_Source_Path>
D:\OneDrive - zju.edu.cn\DOC\A-Finished\LCK_VS\Planet\LCK-8617

> <s_m_Source_File>
glide-dock_SP_top1262_2_pv.maegz

> <i_m_Source_File_Index>
333

> <PLANET_affinity>
8.819

> <i_lp_mmshare_version>
54117

> <i_f3d_flags>
0

> <s_epik_input>
W09IXWMxW2NIXWMoW09IXSlbY0hdYyhjMTIpb2MoLWMoW2NIXWMzW09IXSlbY0hdW2NIXWMzW09IXSljKGMyPU8pT1tDQEBIXTRPW0NASF0oW0NIMl1bT0hdKVtDQEhdKFtPSF0pW0NASF0oW09IXSlbQ0BIXTRPQyg9TyljNVtjSF1jKFtPSF0pYyhbT0hdKWMoW09IXSlbY0hdNQ==

> <s_epik_cmdline>
J2VwaWtfcHl0aG9uJywgJy1waCcsICc3LjAnLCAnLXRuJywgJzgnLCAnLW1hJywgJzUwMCcsICctaW1hZScsICc8aW5maWxlLm1hZT4nLCAnLW9tYWUnLCAnPG91dGZpbGUubWFlPic=

> <r_epik_Ionization_Penalty>
  1.7231

> <r_epik_Ionization_Penalty_Charging>
  1.6810

> <r_epik_Ionization_Penalty_Neutral>
  0.0421

> <r_epik_State_Penalty>
  1.8374

> <r_epik_Charging_Adjusted_Penalty>
3.51839

> <i_epik_Tot_Q>
-1

> <i_epik_Tot_abs_Q>
1

> <s_epik_Chemistry_Notes>
This compound has an ester and may undergo hydrolysis at high or low pH. This compound contains an acetal/aminal-like group ( X-CH(R)-Y where X, Y are N, S, or O) that may be acid/base labile, releasing an aldehyde.

> <s_lp_Force_Field>
S-OPLS

> <r_lp_Energy>
38.1542

> <b_lp_Chiralities_Consistent>
1

> <s_lp_Variant>
O=C1C(O[C@H](O[C@H](CO)[C@H](O)[C@@H]2O)[C@@H]2OC(C3=CC(O)=C(O)C(O)=C3)=O)=C(...-2

> <s_i_glide_gridfile>
glide-grid_1

> <i_i_glide_lignum>
590

> <i_i_glide_rotatable_bonds>
16

> <r_i_docking_score>
-8.30053481246649

> <r_i_glide_ligand_efficiency>
-0.188648518465147

> <r_i_glide_ligand_efficiency_sa>
-0.665994982285078

> <r_i_glide_ligand_efficiency_ln>
-1.7349928509561

> <r_i_glide_gscore>
-10.1379348124665

> <r_i_glide_lipo>
-3.70210580375107

> <r_i_glide_hbond>
-0.572965735380137

> <r_i_glide_metal>
0

> <r_i_glide_rewards>
-0.566660060321075

> <r_i_glide_evdw>
-47.0740966796875

> <r_i_glide_ecoul>
-21.2873229980469

> <r_i_glide_erotb>
0.260968371614302

> <r_i_glide_esite>
-0.010368300937101

> <r_i_glide_emodel>
-99.9115004898792

> <r_i_glide_energy>
-68.3614196777344

> <r_i_glide_einternal>
23.7764320373535

> <i_i_glide_confnum>
356

> <i_i_glide_posenum>
37

> <r_i_glide_eff_state_penalty>
1.8374

> <r_lp_tautomer_probability>
1

> <s_m_subgroup_title>
glide-dock_SP_top1262_2_pv

> <s_m_subgroupid>
glide-dock_SP_top1262_2_pv

> <b_m_subgroup_collapsed>
0

$$$$
C[C@H](C1=CC=CC=C1)NC2=C(C=C3C(C=C4)=CC=C4CN5CCN(CC)CC5)C(N3)=NC=N2
                    3D
 Schrodinger Suite 2021-3.
  0  0  0     0  0            999 V3000
M  V30 BEGIN CTAB
M  V30 COUNTS 66 70 0 0 0
M  V30 BEGIN ATOM
M  V30 1 C  21.9265 36.0711 86.9735 0
M  V30 2 C  21.0009 35.1584 87.4614 0
M  V30 3 C  19.6832 35.5578 87.6443 0
M  V30 4 C  19.2745 36.8506 87.3344 0
M  V30 5 C  20.2013 37.7580 86.8319 0
M  V30 6 C  21.5371 37.3791 86.6485 0
M  V30 7 C  22.5250 38.4327 86.1148 0 CFG=1
M  V30 8 C  22.7725 39.5348 87.1599 0
M  V30 9 N  23.8112 37.9074 85.6412 0
M  V30 10 C  23.9369 37.0058 84.5709 0
M  V30 11 N  22.8405 36.3932 84.0433 0
M  V30 12 C  23.0353 35.5483 83.0031 0
M  V30 13 N  24.2112 35.2330 82.4021 0
M  V30 14 C  25.2554 35.8771 82.9289 0
M  V30 15 C  25.2126 36.7749 84.0238 0
M  V30 16 N  26.5635 35.8032 82.5169 0
M  V30 17 C  27.3719 36.5913 83.3118 0
M  V30 18 C  26.5597 37.2147 84.2517 0
M  V30 19 C  28.8547 36.6316 83.1555 0
M  V30 20 C  29.5997 37.7104 83.6441 0
M  V30 21 C  30.9897 37.7133 83.5278 0
M  V30 22 C  31.6416 36.6280 82.9365 0
M  V30 23 C  30.8961 35.5565 82.4445 0
M  V30 24 C  29.5125 35.5602 82.5444 0
M  V30 25 C  33.1613 36.5899 82.8427 0
M  V30 26 N  33.6847 36.1574 81.4539 0 CHG=1
M  V30 27 C  33.4237 37.2316 80.3736 0
M  V30 28 C  33.8876 36.6548 79.0204 0
M  V30 29 N  35.3265 36.3487 79.0461 0 CFG=2
M  V30 30 C  35.8303 35.9746 77.7170 0
M  V30 31 C  35.2194 34.7021 77.0909 0
M  V30 32 C  35.5966 35.3191 80.0629 0
M  V30 33 C  35.1944 35.8186 81.4719 0
M  V30 34 H  22.9464 35.7485 86.8351 0
M  V30 35 H  21.3016 34.1490 87.7039 0
M  V30 36 H  18.9676 34.8543 88.0449 0
M  V30 37 H  18.2469 37.1503 87.4828 0
M  V30 38 H  19.8773 38.7600 86.5879 0
M  V30 39 H  22.0480 38.8973 85.2488 0
M  V30 40 H  21.8410 39.9982 87.4864 0
M  V30 41 H  23.2711 39.1377 88.0439 0
M  V30 42 H  23.3967 40.3317 86.7569 0
M  V30 43 H  24.6207 38.4852 85.8135 0
M  V30 44 H  22.1465 35.0852 82.6007 0
M  V30 45 H  26.9275 35.2705 81.7394 0
M  V30 46 H  26.9086 37.8904 85.0196 0
M  V30 47 H  29.1074 38.5471 84.1168 0
M  V30 48 H  31.5523 38.5499 83.9158 0
M  V30 49 H  31.3796 34.7051 81.9882 0
M  V30 50 H  28.9649 34.7111 82.1629 0
M  V30 51 H  33.6278 37.5522 83.0645 0
M  V30 52 H  33.5438 35.8442 83.5415 0
M  V30 53 H  32.3519 37.4387 80.3749 0
M  V30 54 H  33.9698 38.1348 80.6535 0
M  V30 55 H  33.3002 35.7611 78.7972 0
M  V30 56 H  33.6828 37.3781 78.2289 0
M  V30 57 H  35.6736 36.8185 77.0442 0
M  V30 58 H  36.9136 35.8653 77.7784 0
M  V30 59 H  35.6362 34.5342 76.0975 0
M  V30 60 H  35.4282 33.8129 77.6828 0
M  V30 61 H  34.1400 34.7779 76.9674 0
M  V30 62 H  36.6612 35.0744 80.0590 0
M  V30 63 H  35.0625 34.3927 79.8378 0
M  V30 64 H  35.7352 36.7202 81.7659 0
M  V30 65 H  35.3415 35.0446 82.2267 0
M  V30 66 H  33.1817 35.3254 81.1738 0
M  V30 END ATOM
M  V30 BEGIN BOND
M  V30 1 2 1 2
M  V30 2 1 1 6
M  V30 3 1 1 34
M  V30 4 1 2 3
M  V30 5 1 2 35
M  V30 6 2 3 4
M  V30 7 1 3 36
M  V30 8 1 4 5
M  V30 9 1 4 37
M  V30 10 2 5 6
M  V30 11 1 5 38
M  V30 12 1 6 7
M  V30 13 1 7 8
M  V30 14 1 7 9
M  V30 15 1 7 39
M  V30 16 1 8 40
M  V30 17 1 8 41
M  V30 18 1 8 42
M  V30 19 1 9 10
M  V30 20 1 9 43
M  V30 21 2 10 11
M  V30 22 1 10 15
M  V30 23 1 11 12
M  V30 24 2 12 13
M  V30 25 1 12 44
M  V30 26 1 13 14
M  V30 27 2 14 15
M  V30 28 1 14 16
M  V30 29 1 15 18
M  V30 30 1 16 17
M  V30 31 1 16 45
M  V30 32 2 17 18
M  V30 33 1 17 19
M  V30 34 1 18 46
M  V30 35 2 19 20
M  V30 36 1 19 24
M  V30 37 1 20 21
M  V30 38 1 20 47
M  V30 39 2 21 22
M  V30 40 1 21 48
M  V30 41 1 22 23
M  V30 42 1 22 25
M  V30 43 2 23 24
M  V30 44 1 23 49
M  V30 45 1 24 50
M  V30 46 1 25 26
M  V30 47 1 25 51
M  V30 48 1 25 52
M  V30 49 1 26 27
M  V30 50 1 26 33
M  V30 51 1 26 66
M  V30 52 1 27 28
M  V30 53 1 27 53
M  V30 54 1 27 54
M  V30 55 1 28 29
M  V30 56 1 28 55
M  V30 57 1 28 56
M  V30 58 1 29 30
M  V30 59 1 29 32
M  V30 60 1 30 31
M  V30 61 1 30 57
M  V30 62 1 30 58
M  V30 63 1 31 59
M  V30 64 1 31 60
M  V30 65 1 31 61
M  V30 66 1 32 33
M  V30 67 1 32 62
M  V30 68 1 32 63
M  V30 69 1 33 64
M  V30 70 1 33 65
M  V30 END BOND
M  V30 END CTAB
M  END
> <s_m_entry_id>
334

> <s_m_entry_name>
result.2653

> <s_m_Source_Path>
D:\OneDrive - zju.edu.cn\DOC\A-Finished\LCK_VS\Planet\LCK-8617

> <s_m_Source_File>
glide-dock_SP_top1262_2_pv.maegz

> <i_m_Source_File_Index>
334

> <PLANET_affinity>
8.227

> <i_lp_mmshare_version>
54117

> <i_f3d_flags>
0

> <s_epik_input>
W2NIXTFbY0hdW2NIXVtjSF1bY0hdYzFbQ0BASF0oW0NIM10pW05IXWMobltjSF1uMiljKGMyMylbY0hdYyhbbkhdMyktYzRbY0hdW2NIXWMoW2NIXVtjSF00KVtDSDJdTjVbQ0gyXVtDSDJdTihbQ0gyXVtDSDNdKVtDSDJdW0NIMl01

> <s_epik_cmdline>
J2VwaWtfcHl0aG9uJywgJy1waCcsICc3LjAnLCAnLXRuJywgJzgnLCAnLW1hJywgJzUwMCcsICctaW1hZScsICc8aW5maWxlLm1hZT4nLCAnLW9tYWUnLCAnPG91dGZpbGUubWFlPic=

> <r_epik_Ionization_Penalty>
  0.0159

> <r_epik_Ionization_Penalty_Charging>
  0.0136

> <r_epik_Ionization_Penalty_Neutral>
  0.0023

> <r_epik_State_Penalty>
  0.1130

> <r_epik_Charging_Adjusted_Penalty>
0.126653

> <i_epik_Tot_Q>
1

> <i_epik_Tot_abs_Q>
1

> <s_lp_Force_Field>
S-OPLS

> <r_lp_Energy>
66.8168

> <b_lp_Chiralities_Consistent>
1

> <s_lp_Variant>
C[C@H](C1=CC=CC=C1)NC2=C(C=C3C(C=C4)=CC=C4CN5CCN(CC)CC5)C(N3)=NC=N2-1

> <s_i_glide_gridfile>
glide-grid_1

> <i_i_glide_lignum>
1045

> <i_i_glide_rotatable_bonds>
7

> <r_i_docking_score>
-8.29458925011299

> <r_i_glide_ligand_efficiency>
-0.251351189397363

> <r_i_glide_ligand_efficiency_sa>
-0.806217567937678

> <r_i_glide_ligand_efficiency_ln>
-1.84467370214047

> <r_i_glide_gscore>
-8.40758925011299

> <r_i_glide_lipo>
-3.37425877663078

> <r_i_glide_hbond>
-0.391265981253423

> <r_i_glide_metal>
0

> <r_i_glide_rewards>
-1.61466187783059

> <r_i_glide_evdw>
-44.319766998291

> <r_i_glide_ecoul>
-8.26140594482422

> <r_i_glide_erotb>
0.43025260476205

> <r_i_glide_esite>
-0.00245597752206849

> <r_i_glide_emodel>
-82.6189214629285

> <r_i_glide_energy>
-52.5811729431152

> <r_i_glide_einternal>
5.8892068862915

> <i_i_glide_confnum>
58

> <i_i_glide_posenum>
85

> <r_i_glide_eff_state_penalty>
0.113

> <s_m_subgroup_title>
glide-dock_SP_top1262_2_pv

> <s_m_subgroupid>
glide-dock_SP_top1262_2_pv

> <b_m_subgroup_collapsed>
0

$$$$
O=C(C=C)NC1=CC(CNC2=NC(NC3=C(OC)C=C(N4CCN(C)CC4)C=C3)=NC=C2Cl)=CC=C1
                    3D
 Schrodinger Suite 2021-3.
  0  0  0     0  0            999 V3000
M  V30 BEGIN CTAB
M  V30 COUNTS 67 70 0 0 0
M  V30 BEGIN ATOM
M  V30 1 C  28.4843 44.9774 84.2462 0
M  V30 2 C  27.1956 44.5991 84.1537 0
M  V30 3 C  26.6676 43.4450 84.8436 0
M  V30 4 O  27.3125 42.8080 85.6780 0
M  V30 5 N  25.4135 43.1565 84.4441 0
M  V30 6 C  24.5840 42.0821 84.8033 0
M  V30 7 C  25.0390 40.9022 85.4069 0
M  V30 8 C  24.1711 39.8356 85.6445 0
M  V30 9 C  22.8110 39.9877 85.3361 0
M  V30 10 C  22.3441 41.1633 84.7503 0
M  V30 11 C  23.2313 42.2041 84.4745 0
M  V30 12 C  24.7298 38.5680 86.2936 0
M  V30 13 N  24.0072 37.3749 85.8611 0
M  V30 14 C  24.3387 36.6977 84.6776 0
M  V30 15 N  25.6060 36.7723 84.1741 0
M  V30 16 C  25.8524 36.1165 83.0068 0
M  V30 17 N  24.9346 35.3834 82.3296 0
M  V30 18 C  23.6816 35.3257 82.8432 0
M  V30 19 C  23.3281 35.9822 84.0193 0
M  V30 20 Cl 21.6854 35.9567 84.5705 0
M  V30 21 N  27.1382 36.0972 82.4439 0
M  V30 22 C  28.3845 36.5239 82.9394 0
M  V30 23 C  28.6246 37.7857 83.5228 0
M  V30 24 O  27.6061 38.7241 83.5183 0
M  V30 25 C  27.9192 40.0892 83.7702 0
M  V30 26 C  29.9114 38.0667 84.0234 0
M  V30 27 C  30.9677 37.1528 83.9061 0
M  V30 28 C  30.7187 35.9479 83.2433 0
M  V30 29 C  29.4484 35.6391 82.7659 0
M  V30 30 N  32.2252 37.4273 84.4420 0
M  V30 31 C  33.4972 36.9321 83.8881 0
M  V30 32 C  34.3233 36.1323 84.9163 0
M  V30 33 N  34.6718 37.0802 86.0800 0 CHG=1
M  V30 34 C  35.5407 36.3559 87.1299 0
M  V30 35 C  33.3526 37.5624 86.7197 0
M  V30 36 C  32.4561 38.2385 85.6532 0
M  V30 37 H  29.2046 44.4390 84.8463 0
M  V30 38 H  28.8458 45.8398 83.7049 0
M  V30 39 H  26.5113 45.1578 83.5293 0
M  V30 40 H  24.9884 43.8145 83.7966 0
M  V30 41 H  26.0758 40.7770 85.6737 0
M  V30 42 H  22.1081 39.1943 85.5402 0
M  V30 43 H  21.2958 41.2704 84.5108 0
M  V30 44 H  22.8554 43.1084 84.0154 0
M  V30 45 H  25.7919 38.4697 86.0639 0
M  V30 46 H  24.6574 38.6561 87.3764 0
M  V30 47 H  23.0493 37.2883 86.1677 0
M  V30 48 H  22.9493 34.7586 82.2855 0
M  V30 49 H  27.2016 35.5531 81.5899 0
M  V30 50 H  27.0481 40.7052 83.5430 0
M  V30 51 H  28.1842 40.2476 84.8165 0
M  V30 52 H  28.7363 40.4444 83.1395 0
M  V30 53 H  30.1096 39.0166 84.4917 0
M  V30 54 H  31.4952 35.2080 83.1263 0
M  V30 55 H  29.2928 34.6861 82.2798 0
M  V30 56 H  33.3240 36.3090 83.0110 0
M  V30 57 H  34.0627 37.7793 83.4992 0
M  V30 58 H  35.2658 35.7795 84.4955 0
M  V30 59 H  33.7823 35.2746 85.3257 0
M  V30 60 H  34.9452 35.5577 87.5771 0
M  V30 61 H  36.4174 35.9485 86.6234 0
M  V30 62 H  35.8344 37.0902 87.8812 0
M  V30 63 H  33.6230 38.2575 87.5161 0
M  V30 64 H  32.8828 36.6871 87.1650 0
M  V30 65 H  32.8691 39.2038 85.3560 0
M  V30 66 H  31.5019 38.4739 86.1298 0
M  V30 67 H  35.1692 37.8762 85.7043 0
M  V30 END ATOM
M  V30 BEGIN BOND
M  V30 1 2 1 2
M  V30 2 1 1 37
M  V30 3 1 1 38
M  V30 4 1 2 3
M  V30 5 1 2 39
M  V30 6 2 3 4
M  V30 7 1 3 5
M  V30 8 1 5 6
M  V30 9 1 5 40
M  V30 10 2 6 7
M  V30 11 1 6 11
M  V30 12 1 7 8
M  V30 13 1 7 41
M  V30 14 2 8 9
M  V30 15 1 8 12
M  V30 16 1 9 10
M  V30 17 1 9 42
M  V30 18 2 10 11
M  V30 19 1 10 43
M  V30 20 1 11 44
M  V30 21 1 12 13
M  V30 22 1 12 45
M  V30 23 1 12 46
M  V30 24 1 13 14
M  V30 25 1 13 47
M  V30 26 2 14 15
M  V30 27 1 14 19
M  V30 28 1 15 16
M  V30 29 2 16 17
M  V30 30 1 16 21
M  V30 31 1 17 18
M  V30 32 2 18 19
M  V30 33 1 18 48
M  V30 34 1 19 20
M  V30 35 1 21 22
M  V30 36 1 21 49
M  V30 37 2 22 23
M  V30 38 1 22 29
M  V30 39 1 23 24
M  V30 40 1 23 26
M  V30 41 1 24 25
M  V30 42 1 25 50
M  V30 43 1 25 51
M  V30 44 1 25 52
M  V30 45 2 26 27
M  V30 46 1 26 53
M  V30 47 1 27 28
M  V30 48 1 27 30
M  V30 49 2 28 29
M  V30 50 1 28 54
M  V30 51 1 29 55
M  V30 52 1 30 31
M  V30 53 1 30 36
M  V30 54 1 31 32
M  V30 55 1 31 56
M  V30 56 1 31 57
M  V30 57 1 32 33
M  V30 58 1 32 58
M  V30 59 1 32 59
M  V30 60 1 33 34
M  V30 61 1 33 35
M  V30 62 1 33 67
M  V30 63 1 34 60
M  V30 64 1 34 61
M  V30 65 1 34 62
M  V30 66 1 35 36
M  V30 67 1 35 63
M  V30 68 1 35 64
M  V30 69 1 36 65
M  V30 70 1 36 66
M  V30 END BOND
M  V30 END CTAB
M  END
> <s_m_entry_id>
336

> <s_m_entry_name>
result.846

> <s_m_Source_Path>
D:\OneDrive - zju.edu.cn\DOC\A-Finished\LCK_VS\Planet\LCK-8617

> <s_m_Source_File>
glide-dock_SP_top1262_2_pv.maegz

> <i_m_Source_File_Index>
336

> <PLANET_affinity>
7.814

> <i_lp_mmshare_version>
54117

> <i_f3d_flags>
0

> <s_epik_input>
W0NIMl09W0NIXUMoPU8pW05IXWMxW2NIXWMoW2NIXVtjSF1bY0hdMSlbQ0gyXVtOSF1jMm5jKG5bY0hdYzJDbClbTkhdYzNjKE9bQ0gzXSlbY0hdYyhbY0hdW2NIXTMpTjRbQ0gyXVtDSDJdTihbQ0gzXSlbQ0gyXVtDSDJdNA==

> <s_epik_cmdline>
J2VwaWtfcHl0aG9uJywgJy1waCcsICc3LjAnLCAnLXRuJywgJzgnLCAnLW1hJywgJzUwMCcsICctaW1hZScsICc8aW5maWxlLm1hZT4nLCAnLW9tYWUnLCAnPG91dGZpbGUubWFlPic=

> <r_epik_Ionization_Penalty>
  0.0812

> <r_epik_Ionization_Penalty_Charging>
  0.0647

> <r_epik_Ionization_Penalty_Neutral>
  0.0165

> <r_epik_State_Penalty>
  0.0626

> <r_epik_Charging_Adjusted_Penalty>
0.12732

> <i_epik_Tot_Q>
1

> <i_epik_Tot_abs_Q>
1

> <s_lp_Force_Field>
S-OPLS

> <r_lp_Energy>
76.5327

> <b_lp_Chiralities_Consistent>
1

> <s_lp_Variant>
O=C(C=C)NC1=CC(CNC2=NC(NC3=C(OC)C=C(N4CCN(C)CC4)C=C3)=NC=C2Cl)=CC=C1-1

> <s_i_glide_gridfile>
glide-grid_1

> <i_i_glide_lignum>
1494

> <i_i_glide_rotatable_bonds>
10

> <r_i_docking_score>
-8.29155164843279

> <r_i_glide_ligand_efficiency>
-0.230320879123133

> <r_i_glide_ligand_efficiency_sa>
-0.760502785857613

> <r_i_glide_ligand_efficiency_ln>
-1.80899255785025

> <r_i_glide_gscore>
-8.35415164843279

> <r_i_glide_lipo>
-2.08755875932712

> <r_i_glide_hbond>
-0.80159707752709

> <r_i_glide_metal>
0

> <r_i_glide_rewards>
-1.55392323374527

> <r_i_glide_evdw>
-44.2916374206543

> <r_i_glide_ecoul>
-14.2166366577148

> <r_i_glide_erotb>
0.497892908442126

> <r_i_glide_esite>
-0.0618881165854954

> <r_i_glide_emodel>
-85.6347839480596

> <r_i_glide_energy>
-58.5082740783691

> <r_i_glide_einternal>
12.7734155654907

> <i_i_glide_confnum>
236

> <i_i_glide_posenum>
277

> <r_i_glide_eff_state_penalty>
0.0626

> <r_lp_tautomer_probability>
1

> <s_m_subgroup_title>
glide-dock_SP_top1262_2_pv

> <s_m_subgroupid>
glide-dock_SP_top1262_2_pv

> <b_m_subgroup_collapsed>
0

$$$$
CN(C1=C2C3=CC(C4=CC5=CC=CC=C5N=C4)=CC=C3N=C1)C(N2C6=CC=C(C=C6)C(C)(C#N)C)=O.C...
                    3D
 Schrodinger Suite 2021-3.
  0  0  0     0  0            999 V3000
M  V30 BEGIN CTAB
M  V30 COUNTS 59 64 0 0 0
M  V30 BEGIN ATOM
M  V30 1 N  20.5159 40.4552 88.0433 0
M  V30 2 C  21.4975 41.0653 87.9495 0
M  V30 3 C  22.7512 41.8379 87.8404 0
M  V30 4 C  22.4834 43.1350 87.0315 0
M  V30 5 C  23.1629 42.2696 89.2715 0
M  V30 6 C  23.8007 40.9309 87.1511 0
M  V30 7 C  24.7831 40.2434 87.8855 0
M  V30 8 C  25.6925 39.4019 87.2500 0
M  V30 9 C  23.7658 40.7577 85.7584 0
M  V30 10 C  24.6819 39.9327 85.1176 0
M  V30 11 C  25.6347 39.2336 85.8615 0
M  V30 12 N  26.5196 38.3611 85.2011 0
M  V30 13 C  27.8776 38.4660 85.2435 0
M  V30 14 O  28.5510 39.2249 85.9441 0
M  V30 15 N  28.3292 37.5834 84.3168 0
M  V30 16 C  29.7484 37.4185 84.0086 0
M  V30 17 C  26.1415 37.3004 84.3773 0
M  V30 18 C  27.2902 36.8610 83.7794 0
M  V30 19 C  24.9006 36.6737 84.0540 0
M  V30 20 C  24.9268 35.6891 83.0140 0
M  V30 21 N  26.0903 35.2626 82.4446 0
M  V30 22 C  27.2542 35.8366 82.8417 0
M  V30 23 C  23.7076 35.1573 82.5372 0
M  V30 24 C  22.5035 35.5570 83.1000 0
M  V30 25 C  22.4708 36.4399 84.1715 0
M  V30 26 C  23.6581 36.9722 84.6691 0
M  V30 27 C  21.1853 36.8425 84.7579 0
M  V30 28 C  20.8454 36.4441 86.0476 0
M  V30 29 C  20.2752 37.6224 84.0428 0
M  V30 30 N  19.0721 38.0159 84.5115 0
M  V30 31 C  18.7221 37.6082 85.7571 0
M  V30 32 C  19.5853 36.8064 86.5686 0
M  V30 33 C  17.4547 37.9770 86.2471 0
M  V30 34 C  17.0507 37.5465 87.5026 0
M  V30 35 C  17.8834 36.7564 88.2812 0
M  V30 36 C  19.1431 36.3787 87.8350 0
M  V30 37 H  21.9970 42.9438 86.0752 0
M  V30 38 H  21.8144 43.8130 87.5663 0
M  V30 39 H  23.4049 43.6807 86.8317 0
M  V30 40 H  23.2169 41.4248 89.9574 0
M  V30 41 H  24.1314 42.7734 89.2769 0
M  V30 42 H  22.4396 42.9636 89.7013 0
M  V30 43 H  24.8550 40.3394 88.9599 0
M  V30 44 H  26.4337 38.8792 87.8384 0
M  V30 45 H  23.0221 41.2563 85.1563 0
M  V30 46 H  24.6297 39.8113 84.0440 0
M  V30 47 H  30.0271 36.3695 84.0805 0
M  V30 48 H  29.9510 37.7558 82.9931 0
M  V30 49 H  30.3876 37.9828 84.6889 0
M  V30 50 H  28.1482 35.4678 82.3581 0
M  V30 51 H  23.6977 34.4403 81.7285 0
M  V30 52 H  21.5798 35.1543 82.7074 0
M  V30 53 H  23.6130 37.6505 85.5055 0
M  V30 54 H  21.5137 35.8308 86.6364 0
M  V30 55 H  20.4853 37.9547 83.0374 0
M  V30 56 H  16.7979 38.5913 85.6474 0
M  V30 57 H  16.0798 37.8231 87.8795 0
M  V30 58 H  17.5417 36.4195 89.2440 0
M  V30 59 H  19.7741 35.7489 88.4433 0
M  V30 END ATOM
M  V30 BEGIN BOND
M  V30 1 3 1 2
M  V30 2 1 2 3
M  V30 3 1 3 4
M  V30 4 1 3 5
M  V30 5 1 3 6
M  V30 6 1 4 37
M  V30 7 1 4 38
M  V30 8 1 4 39
M  V30 9 1 5 40
M  V30 10 1 5 41
M  V30 11 1 5 42
M  V30 12 2 6 7
M  V30 13 1 6 9
M  V30 14 1 7 8
M  V30 15 1 7 43
M  V30 16 2 8 11
M  V30 17 1 8 44
M  V30 18 2 9 10
M  V30 19 1 9 45
M  V30 20 1 10 11
M  V30 21 1 10 46
M  V30 22 1 11 12
M  V30 23 1 12 13
M  V30 24 1 12 17
M  V30 25 2 13 14
M  V30 26 1 13 15
M  V30 27 1 15 16
M  V30 28 1 15 18
M  V30 29 1 16 47
M  V30 30 1 16 48
M  V30 31 1 16 49
M  V30 32 2 17 18
M  V30 33 1 17 19
M  V30 34 1 18 22
M  V30 35 2 19 20
M  V30 36 1 19 26
M  V30 37 1 20 21
M  V30 38 1 20 23
M  V30 39 2 21 22
M  V30 40 1 22 50
M  V30 41 2 23 24
M  V30 42 1 23 51
M  V30 43 1 24 25
M  V30 44 1 24 52
M  V30 45 2 25 26
M  V30 46 1 25 27
M  V30 47 1 26 53
M  V30 48 2 27 28
M  V30 49 1 27 29
M  V30 50 1 28 32
M  V30 51 1 28 54
M  V30 52 2 29 30
M  V30 53 1 29 55
M  V30 54 1 30 31
M  V30 55 2 31 32
M  V30 56 1 31 33
M  V30 57 1 32 36
M  V30 58 2 33 34
M  V30 59 1 33 56
M  V30 60 1 34 35
M  V30 61 1 34 57
M  V30 62 2 35 36
M  V30 63 1 35 58
M  V30 64 1 36 59
M  V30 END BOND
M  V30 END CTAB
M  END
> <s_m_entry_id>
338

> <s_m_entry_name>
result.6487

> <s_m_Source_Path>
D:\OneDrive - zju.edu.cn\DOC\A-Finished\LCK_VS\Planet\LCK-8617

> <s_m_Source_File>
glide-dock_SP_top1262_2_pv.maegz

> <i_m_Source_File_Index>
338

> <PLANET_affinity>
7.415

> <i_lp_mmshare_version>
54117

> <i_f3d_flags>
0

> <s_epik_input>
TiNDQyhbQ0gzXSkoW0NIM10pYzFbY0hdW2NIXWMoW2NIXVtjSF0xKS1uMmMoPU8pbihbQ0gzXSljKGMyMylbY0hdbmM0YzNbY0hdYyhbY0hdW2NIXTQpLWMoW2NIXW41KVtjSF1jKGM1NilbY0hdW2NIXVtjSF1bY0hdNg==

> <s_epik_cmdline>
J2VwaWtfcHl0aG9uJywgJy1waCcsICc3LjAnLCAnLXRuJywgJzgnLCAnLW1hJywgJzUwMCcsICctaW1hZScsICc8aW5maWxlLm1hZT4nLCAnLW9tYWUnLCAnPG91dGZpbGUubWFlPic=

> <r_epik_Ionization_Penalty>
  0.0033

> <r_epik_Ionization_Penalty_Charging>
  0.0000

> <r_epik_Ionization_Penalty_Neutral>
  0.0033

> <r_epik_State_Penalty>
  0.0000

> <r_epik_Charging_Adjusted_Penalty>
5.77505e-10

> <i_epik_Tot_Q>
0

> <i_epik_Tot_abs_Q>
0

> <s_lp_Force_Field>
S-OPLS

> <r_lp_Energy>
66.1078

> <b_lp_Chiralities_Consistent>
1

> <s_lp_Variant>
CN(C1=C2C3=CC(C4=CC5=CC=CC=C5N=C4)=CC=C3N=C1)C(N2C6=CC=C(C=C6)C(C)(C#N)C)=O.C...-1

> <s_i_glide_gridfile>
glide-grid_1

> <i_i_glide_lignum>
2069

> <i_i_glide_rotatable_bonds>
3

> <r_i_docking_score>
-8.28737704150074

> <r_i_glide_ligand_efficiency>
-0.230204917819465

> <r_i_glide_ligand_efficiency_sa>
-0.760119890069672

> <r_i_glide_ligand_efficiency_ln>
-1.80808177140252

> <r_i_glide_gscore>
-8.28737704150074

> <r_i_glide_lipo>
-3.82871791599241

> <r_i_glide_hbond>
-0.284896524105962

> <r_i_glide_metal>
0

> <r_i_glide_rewards>
-1.45831881970183

> <r_i_glide_evdw>
-48.2191390991211

> <r_i_glide_ecoul>
-3.60215139389038

> <r_i_glide_erotb>
0.274850407360357

> <r_i_glide_esite>
-0.0390145250212811

> <r_i_glide_emodel>
-75.2090073580408

> <r_i_glide_energy>
-51.8212904930115

> <r_i_glide_einternal>
7.00480508804321

> <i_i_glide_confnum>
27

> <i_i_glide_posenum>
82

> <r_i_glide_eff_state_penalty>
0

> <r_lp_tautomer_probability>
1

> <s_m_subgroup_title>
glide-dock_SP_top1262_2_pv

> <s_m_subgroupid>
glide-dock_SP_top1262_2_pv

> <b_m_subgroup_collapsed>
0

$$$$
FC1=CC2=C(C=C1)C(C[C@H]3N(C([C@@H](NC([C@@H](NC)C)=O)CC)=O)C[C@@H](O)C3)=C(C(...
                    3D
 Schrodinger Suite 2021-3.
  0  0  0     0  0            999 V3000
M  V30 BEGIN CTAB
M  V30 COUNTS 116 121 0 0 0
M  V30 BEGIN ATOM
M  V30 1 C  16.6385 37.8807 86.4434 0
M  V30 2 N  17.8759 38.3564 87.2256 0 CHG=1
M  V30 3 C  18.9208 37.3427 87.6345 0 CFG=1
M  V30 4 C  18.3184 36.0497 88.2071 0
M  V30 5 C  19.8192 37.0945 86.4020 0
M  V30 6 O  19.3146 36.7567 85.3294 0
M  V30 7 N  21.1404 37.2937 86.5794 0
M  V30 8 C  22.1652 37.4429 85.5263 0 CFG=1
M  V30 9 C  22.1462 36.2717 84.4988 0
M  V30 10 C  23.5010 35.9265 83.8535 0
M  V30 11 C  22.0214 38.8538 84.8723 0
M  V30 12 O  20.8998 39.1451 84.4434 0
M  V30 13 N  23.0450 39.7580 84.8284 0
M  V30 14 C  22.6924 41.1571 84.4922 0
M  V30 15 C  24.0089 41.9108 84.3310 0 CFG=1
M  V30 16 O  24.0314 43.2261 84.8435 0
M  V30 17 C  25.0457 41.0264 84.9795 0
M  V30 18 C  24.5195 39.5849 84.8942 0 CFG=1
M  V30 19 C  25.1905 38.6149 85.9019 0
M  V30 20 C  26.7013 38.8031 85.9301 0
M  V30 21 C  27.6104 38.2076 84.9830 0
M  V30 22 C  28.9082 38.7264 85.2450 0
M  V30 23 C  27.4583 37.2872 83.9327 0
M  V30 24 C  28.5870 36.8832 83.2227 0
M  V30 25 C  29.8426 37.4161 83.4939 0
M  V30 26 F  30.9049 37.0091 82.7631 0
M  V30 27 C  30.0333 38.3600 84.5014 0
M  V30 28 C  27.4842 39.5602 86.8078 0
M  V30 29 N  28.7723 39.5526 86.3325 0
M  V30 30 C  27.1567 40.3183 88.0307 0
M  V30 31 N  25.9010 40.2333 88.5798 0
M  V30 32 C  25.7972 40.9752 89.7306 0
M  V30 33 C  27.0670 41.5890 89.9178 0
M  V30 34 C  24.7310 41.1612 90.6170 0
M  V30 35 C  24.9651 41.9745 91.7263 0
M  V30 36 F  23.9690 42.1671 92.6203 0
M  V30 37 C  26.1975 42.5877 91.9358 0
M  V30 38 C  27.2547 42.4094 91.0443 0
M  V30 39 C  27.9254 41.1569 88.8442 0
M  V30 40 C  29.3872 41.5573 88.7000 0
M  V30 41 C  29.6039 42.9695 88.0875 0 CFG=1
M  V30 42 N  30.8651 43.1474 87.3324 0
M  V30 43 C  30.6036 43.6239 85.9676 0
M  V30 44 C  29.2043 44.2305 86.0175 0 CFG=1
M  V30 45 O  28.4839 44.2255 84.7972 0
M  V30 46 C  28.5147 43.4176 87.0901 0
M  V30 47 C  32.1510 42.9807 87.7540 0
M  V30 48 O  33.1188 43.1848 87.0163 0
M  V30 49 C  32.4546 42.5480 89.2153 0 CFG=2
M  V30 50 C  33.5556 43.4323 89.8784 0
M  V30 51 C  33.8227 43.0971 91.3557 0
M  V30 52 N  32.7209 41.0955 89.2851 0
M  V30 53 C  33.8444 40.4414 88.9116 0
M  V30 54 O  34.8562 40.9976 88.4798 0
M  V30 55 C  33.8142 38.8987 89.0990 0 CFG=2
M  V30 56 C  33.9966 38.4879 90.5771 0
M  V30 57 N  34.8895 38.2996 88.2227 0 CHG=1
M  V30 58 C  34.6851 36.8148 87.8503 0
M  V30 59 H  16.0304 38.7596 86.2460 0
M  V30 60 H  16.0863 37.1740 87.0647 0
M  V30 61 H  16.9649 37.4368 85.5044 0
M  V30 62 H  18.3477 39.0780 86.6894 0
M  V30 63 H  19.4829 37.8519 88.4170 0
M  V30 64 H  19.0929 35.3326 88.4891 0
M  V30 65 H  17.7042 36.2462 89.0880 0
M  V30 66 H  17.6847 35.5572 87.4755 0
M  V30 67 H  21.4696 37.5221 87.5043 0
M  V30 68 H  23.0546 37.3650 86.1301 0
M  V30 69 H  21.7937 35.3674 84.9952 0
M  V30 70 H  21.4181 36.4658 83.7100 0
M  V30 71 H  23.3887 35.0987 83.1535 0
M  V30 72 H  23.9270 36.7570 83.2945 0
M  V30 73 H  24.2291 35.6141 84.6008 0
M  V30 74 H  22.1205 41.2507 83.5674 0
M  V30 75 H  22.1264 41.6019 85.3136 0
M  V30 76 H  24.2700 41.9574 83.2706 0
M  V30 77 H  23.5210 43.8084 84.2672 0
M  V30 78 H  26.0399 41.1541 84.5480 0
M  V30 79 H  25.1466 41.3109 86.0295 0
M  V30 80 H  24.8023 39.1918 83.9193 0
M  V30 81 H  24.7416 38.7368 86.8849 0
M  V30 82 H  25.0220 37.5850 85.6034 0
M  V30 83 H  26.4910 36.8738 83.6939 0
M  V30 84 H  28.4887 36.1533 82.4307 0
M  V30 85 H  31.0158 38.7561 84.7060 0
M  V30 86 H  29.5099 40.0642 86.7943 0
M  V30 87 H  25.1765 39.6752 88.1540 0
M  V30 88 H  23.7689 40.6999 90.4670 0
M  V30 89 H  26.3338 43.2046 92.8138 0
M  V30 90 H  28.2039 42.8914 91.2257 0
M  V30 91 H  29.8390 41.5124 89.6884 0
M  V30 92 H  29.9434 40.8245 88.1211 0
M  V30 93 H  29.6255 43.6815 88.9130 0
M  V30 94 H  30.5932 42.7711 85.2884 0
M  V30 95 H  31.3206 44.3602 85.5991 0
M  V30 96 H  29.2833 45.2655 86.3553 0
M  V30 97 H  29.1176 44.3589 84.0804 0
M  V30 98 H  28.0783 42.5481 86.5968 0
M  V30 99 H  27.6791 43.9314 87.5657 0
M  V30 100 H  31.5733 42.7333 89.8208 0
M  V30 101 H  34.4931 43.3676 89.3251 0
M  V30 102 H  33.2599 44.4803 89.8184 0
M  V30 103 H  34.5618 43.7782 91.7806 0
M  V30 104 H  32.9148 43.1820 91.9505 0
M  V30 105 H  34.2069 42.0832 91.4750 0
M  V30 106 H  31.9371 40.5360 89.5958 0
M  V30 107 H  32.8830 38.5144 88.6946 0
M  V30 108 H  33.1978 38.8956 91.2001 0
M  V30 109 H  33.9635 37.4055 90.7043 0
M  V30 110 H  34.9449 38.8397 90.9869 0
M  V30 111 H  34.9182 38.8631 87.3819 0
M  V30 112 H  35.5164 36.5269 87.2053 0
M  V30 113 H  34.6870 36.2275 88.7711 0
M  V30 114 H  33.7332 36.7227 87.3218 0
M  V30 115 H  17.5289 38.8112 88.0638 0
M  V30 116 H  35.7725 38.4314 88.7004 0
M  V30 END ATOM
M  V30 BEGIN BOND
M  V30 1 1 1 2
M  V30 2 1 1 59
M  V30 3 1 1 60
M  V30 4 1 1 61
M  V30 5 1 2 3
M  V30 6 1 2 62
M  V30 7 1 2 115
M  V30 8 1 3 4
M  V30 9 1 3 5
M  V30 10 1 3 63
M  V30 11 1 4 64
M  V30 12 1 4 65
M  V30 13 1 4 66
M  V30 14 2 5 6
M  V30 15 1 5 7
M  V30 16 1 7 8
M  V30 17 1 7 67
M  V30 18 1 8 9
M  V30 19 1 8 11
M  V30 20 1 8 68
M  V30 21 1 9 10
M  V30 22 1 9 69
M  V30 23 1 9 70
M  V30 24 1 10 71
M  V30 25 1 10 72
M  V30 26 1 10 73
M  V30 27 2 11 12
M  V30 28 1 11 13
M  V30 29 1 13 14
M  V30 30 1 13 18
M  V30 31 1 14 15
M  V30 32 1 14 74
M  V30 33 1 14 75
M  V30 34 1 15 16
M  V30 35 1 15 17
M  V30 36 1 15 76
M  V30 37 1 16 77
M  V30 38 1 17 18
M  V30 39 1 17 78
M  V30 40 1 17 79
M  V30 41 1 18 19
M  V30 42 1 18 80
M  V30 43 1 19 20
M  V30 44 1 19 81
M  V30 45 1 19 82
M  V30 46 1 20 21
M  V30 47 2 20 28
M  V30 48 1 21 22
M  V30 49 2 21 23
M  V30 50 2 22 27
M  V30 51 1 22 29
M  V30 52 1 23 24
M  V30 53 1 23 83
M  V30 54 2 24 25
M  V30 55 1 24 84
M  V30 56 1 25 26
M  V30 57 1 25 27
M  V30 58 1 27 85
M  V30 59 1 28 29
M  V30 60 1 28 30
M  V30 61 1 29 86
M  V30 62 1 30 31
M  V30 63 2 30 39
M  V30 64 1 31 32
M  V30 65 1 31 87
M  V30 66 2 32 33
M  V30 67 1 32 34
M  V30 68 1 33 39
M  V30 69 1 33 38
M  V30 70 2 34 35
M  V30 71 1 34 88
M  V30 72 1 35 36
M  V30 73 1 35 37
M  V30 74 2 37 38
M  V30 75 1 37 89
M  V30 76 1 38 90
M  V30 77 1 39 40
M  V30 78 1 40 41
M  V30 79 1 40 91
M  V30 80 1 40 92
M  V30 81 1 41 42
M  V30 82 1 41 46
M  V30 83 1 41 93
M  V30 84 1 42 43
M  V30 85 1 42 47
M  V30 86 1 43 44
M  V30 87 1 43 94
M  V30 88 1 43 95
M  V30 89 1 44 45
M  V30 90 1 44 46
M  V30 91 1 44 96
M  V30 92 1 45 97
M  V30 93 1 46 98
M  V30 94 1 46 99
M  V30 95 2 47 48
M  V30 96 1 47 49
M  V30 97 1 49 50
M  V30 98 1 49 52
M  V30 99 1 49 100
M  V30 100 1 50 51
M  V30 101 1 50 101
M  V30 102 1 50 102
M  V30 103 1 51 103
M  V30 104 1 51 104
M  V30 105 1 51 105
M  V30 106 1 52 53
M  V30 107 1 52 106
M  V30 108 2 53 54
M  V30 109 1 53 55
M  V30 110 1 55 56
M  V30 111 1 55 57
M  V30 112 1 55 107
M  V30 113 1 56 108
M  V30 114 1 56 109
M  V30 115 1 56 110
M  V30 116 1 57 58
M  V30 117 1 57 111
M  V30 118 1 57 116
M  V30 119 1 58 112
M  V30 120 1 58 113
M  V30 121 1 58 114
M  V30 END BOND
M  V30 END CTAB
M  END
> <s_m_entry_id>
339

> <s_m_entry_name>
result.2300

> <s_m_Source_Path>
D:\OneDrive - zju.edu.cn\DOC\A-Finished\LCK_VS\Planet\LCK-8617

> <s_m_Source_File>
glide-dock_SP_top1262_2_pv.maegz

> <i_m_Source_File_Index>
339

> <PLANET_affinity>
7.109

> <i_lp_mmshare_version>
54117

> <i_f3d_flags>
0

> <s_epik_input>
W0NIM11bTkhdW0NAQEhdKFtDSDNdKUMoPU8pW05IXVtDQEBIXShbQ0gyXVtDSDNdKUMoPU8pTjFbQ0gyXVtDQEBIXShbT0hdKVtDSDJdW0NASF0xW0NIMl1jMmMoW25IXWMoYzIzKVtjSF1jKEYpW2NIXVtjSF0zKS1jKFtuSF00KWMoYyhjNDUpW2NIXVtjSF1jKEYpW2NIXTUpW0NIMl1bQ0BIXTZOKFtDSDJdW0NAQEhdKFtPSF0pW0NIMl02KUMoPU8pW0NASF0oW0NIMl1bQ0gzXSlbTkhdQyg9TylbQ0BIXShbQ0gzXSlbTkhdW0NIM10=

> <s_epik_cmdline>
J2VwaWtfcHl0aG9uJywgJy1waCcsICc3LjAnLCAnLXRuJywgJzgnLCAnLW1hJywgJzUwMCcsICctaW1hZScsICc8aW5maWxlLm1hZT4nLCAnLW9tYWUnLCAnPG91dGZpbGUubWFlPic=

> <r_epik_Ionization_Penalty>
  0.1534

> <r_epik_Ionization_Penalty_Charging>
  0.1534

> <r_epik_Ionization_Penalty_Neutral>
  0.0000

> <r_epik_State_Penalty>
  0.1505

> <r_epik_Charging_Adjusted_Penalty>
0.303813

> <i_epik_Tot_Q>
2

> <i_epik_Tot_abs_Q>
2

> <s_lp_Force_Field>
S-OPLS

> <r_lp_Energy>
51.9164

> <b_lp_Chiralities_Consistent>
1

> <s_lp_Variant>
FC1=CC2=C(C=C1)C(C[C@H]3N(C([C@@H](NC([C@@H](NC)C)=O)CC)=O)C[C@@H](O)C3)=C(C(...-1

> <s_i_glide_gridfile>
glide-grid_1

> <i_i_glide_lignum>
2509

> <i_i_glide_rotatable_bonds>
21

> <r_i_docking_score>
-8.28722384748253

> <r_i_glide_ligand_efficiency>
-0.142883169784181

> <r_i_glide_ligand_efficiency_sa>
-0.553083123507856

> <r_i_glide_ligand_efficiency_ln>
-1.6376478956904

> <r_i_glide_gscore>
-8.43772384748253

> <r_i_glide_lipo>
-2.94974287489523

> <r_i_glide_hbond>
-0.272873471937345

> <r_i_glide_metal>
0

> <r_i_glide_rewards>
-0.798900386558097

> <r_i_glide_evdw>
-49.840892791748

> <r_i_glide_ecoul>
-14.3720607757568

> <r_i_glide_erotb>
0.293906225601689

> <r_i_glide_esite>
-0.0622595837426133

> <r_i_glide_emodel>
-87.8609208061962

> <r_i_glide_energy>
-64.2129535675049

> <r_i_glide_einternal>
35.7939605712891

> <i_i_glide_confnum>
610

> <i_i_glide_posenum>
374

> <r_i_glide_eff_state_penalty>
0.1505

> <s_m_subgroup_title>
glide-dock_SP_top1262_2_pv

> <s_m_subgroupid>
glide-dock_SP_top1262_2_pv

> <b_m_subgroup_collapsed>
0

$$$$
O=C1N([C@H]2CCCN(C(C=C)=O)C2)C3=NC=NC(N)=C3N1C4=CC=C(OC5=CC=CC=C5)C=C4
                    3D
 Schrodinger Suite 2021-3.
  0  0  0     0  0            999 V3000
M  V30 BEGIN CTAB
M  V30 COUNTS 58 62 0 0 0
M  V30 BEGIN ATOM
M  V30 1 C  18.1563 36.3589 88.4693 0
M  V30 2 C  18.9592 37.1437 87.7298 0
M  V30 3 C  20.2002 36.6496 87.1729 0
M  V30 4 O  20.7414 35.6445 87.6432 0
M  V30 5 N  20.7394 37.3283 86.1223 0
M  V30 6 C  22.0123 36.8750 85.5406 0
M  V30 7 C  20.1439 38.4846 85.4239 0
M  V30 8 C  21.1014 39.6697 85.6460 0
M  V30 9 C  22.5249 39.3689 85.1338 0
M  V30 10 C  23.0775 38.0086 85.6395 0 CFG=2
M  V30 11 N  24.4040 37.6569 85.0864 0
M  V30 12 C  25.5532 38.2682 85.4917 0
M  V30 13 O  25.6770 39.0783 86.4130 0
M  V30 14 N  26.5237 37.8449 84.6283 0
M  V30 15 C  26.0191 36.8525 83.8003 0
M  V30 16 C  24.6828 36.7644 84.0698 0
M  V30 17 C  26.5312 36.0004 82.8109 0
M  V30 18 N  27.8705 35.9673 82.4439 0
M  V30 19 N  25.7089 35.1569 82.1310 0
M  V30 20 C  24.3890 35.1679 82.4592 0
M  V30 21 N  23.8264 35.9353 83.4208 0
M  V30 22 C  27.7761 38.4676 84.4671 0
M  V30 23 C  28.9403 37.7672 84.7865 0
M  V30 24 C  30.1837 38.3758 84.6534 0
M  V30 25 C  30.2665 39.6889 84.1931 0
M  V30 26 C  29.1083 40.3942 83.8613 0
M  V30 27 C  27.8601 39.7846 83.9945 0
M  V30 28 O  31.4907 40.3096 84.1129 0
M  V30 29 C  32.2656 40.2278 82.9738 0
M  V30 30 C  33.2994 41.1558 82.8504 0
M  V30 31 C  34.1269 41.1467 81.7315 0
M  V30 32 C  33.9207 40.2017 80.7292 0
M  V30 33 C  32.9025 39.2591 80.8459 0
M  V30 34 C  32.0826 39.2669 81.9694 0
M  V30 35 H  18.4039 35.3287 88.6879 0
M  V30 36 H  17.2396 36.7580 88.8774 0
M  V30 37 H  18.6800 38.1711 87.5557 0
M  V30 38 H  22.3766 35.9347 85.9587 0
M  V30 39 H  21.7940 36.6593 84.4957 0
M  V30 40 H  20.1228 38.2341 84.3624 0
M  V30 41 H  19.1011 38.6916 85.6574 0
M  V30 42 H  20.7107 40.5533 85.1378 0
M  V30 43 H  21.1279 39.9285 86.7058 0
M  V30 44 H  22.4877 39.3506 84.0436 0
M  V30 45 H  23.1901 40.1854 85.4211 0
M  V30 46 H  23.2455 38.1226 86.7128 0
M  V30 47 H  28.5038 36.6383 82.8524 0
M  V30 48 H  28.0814 35.5287 81.5519 0
M  V30 49 H  23.7198 34.5123 81.9209 0
M  V30 50 H  28.8843 36.7549 85.1552 0
M  V30 51 H  31.0842 37.8404 84.9211 0
M  V30 52 H  29.1910 41.4210 83.5328 0
M  V30 53 H  26.9643 40.3403 83.7568 0
M  V30 54 H  33.4383 41.9019 83.6195 0
M  V30 55 H  34.9153 41.8774 81.6349 0
M  V30 56 H  34.5549 40.1955 79.8548 0
M  V30 57 H  32.7476 38.5281 80.0658 0
M  V30 58 H  31.2975 38.5293 82.0478 0
M  V30 END ATOM
M  V30 BEGIN BOND
M  V30 1 2 1 2
M  V30 2 1 1 35
M  V30 3 1 1 36
M  V30 4 1 2 3
M  V30 5 1 2 37
M  V30 6 2 3 4
M  V30 7 1 3 5
M  V30 8 1 5 6
M  V30 9 1 5 7
M  V30 10 1 6 10
M  V30 11 1 6 38
M  V30 12 1 6 39
M  V30 13 1 7 8
M  V30 14 1 7 40
M  V30 15 1 7 41
M  V30 16 1 8 9
M  V30 17 1 8 42
M  V30 18 1 8 43
M  V30 19 1 9 10
M  V30 20 1 9 44
M  V30 21 1 9 45
M  V30 22 1 10 11
M  V30 23 1 10 46
M  V30 24 1 11 12
M  V30 25 1 11 16
M  V30 26 2 12 13
M  V30 27 1 12 14
M  V30 28 1 14 15
M  V30 29 1 14 22
M  V30 30 2 15 16
M  V30 31 1 15 17
M  V30 32 1 16 21
M  V30 33 1 17 18
M  V30 34 2 17 19
M  V30 35 1 18 47
M  V30 36 1 18 48
M  V30 37 1 19 20
M  V30 38 2 20 21
M  V30 39 1 20 49
M  V30 40 2 22 23
M  V30 41 1 22 27
M  V30 42 1 23 24
M  V30 43 1 23 50
M  V30 44 2 24 25
M  V30 45 1 24 51
M  V30 46 1 25 26
M  V30 47 1 25 28
M  V30 48 2 26 27
M  V30 49 1 26 52
M  V30 50 1 27 53
M  V30 51 1 28 29
M  V30 52 2 29 30
M  V30 53 1 29 34
M  V30 54 1 30 31
M  V30 55 1 30 54
M  V30 56 2 31 32
M  V30 57 1 31 55
M  V30 58 1 32 33
M  V30 59 1 32 56
M  V30 60 2 33 34
M  V30 61 1 33 57
M  V30 62 1 34 58
M  V30 END BOND
M  V30 END CTAB
M  END
> <s_m_entry_id>
345

> <s_m_entry_name>
result.3703

> <s_m_Source_Path>
D:\OneDrive - zju.edu.cn\DOC\A-Finished\LCK_VS\Planet\LCK-8617

> <s_m_Source_File>
glide-dock_SP_top1262_2_pv.maegz

> <i_m_Source_File_Index>
345

> <PLANET_affinity>
7.272

> <i_lp_mmshare_version>
54117

> <i_f3d_flags>
0

> <s_epik_input>
W0NIMl09W0NIXUMoPU8pTjFbQ0gyXVtDQEhdKFtDSDJdW0NIMl1bQ0gyXTEpbihjKGMyMyluW2NIXW5jM1tOSDJdKWMoPU8pbjItYzRbY0hdW2NIXWMoW2NIXVtjSF00KU9jNVtjSF1bY0hdW2NIXVtjSF1bY0hdNQ==

> <s_epik_cmdline>
J2VwaWtfcHl0aG9uJywgJy1waCcsICc3LjAnLCAnLXRuJywgJzgnLCAnLW1hJywgJzUwMCcsICctaW1hZScsICc8aW5maWxlLm1hZT4nLCAnLW9tYWUnLCAnPG91dGZpbGUubWFlPic=

> <r_epik_Ionization_Penalty>
  0.0054

> <r_epik_Ionization_Penalty_Charging>
  0.0000

> <r_epik_Ionization_Penalty_Neutral>
  0.0054

> <r_epik_State_Penalty>
  0.0038

> <r_epik_Charging_Adjusted_Penalty>
0.003813

> <i_epik_Tot_Q>
0

> <i_epik_Tot_abs_Q>
0

> <s_lp_Force_Field>
S-OPLS

> <r_lp_Energy>
57.3355

> <b_lp_Chiralities_Consistent>
1

> <s_lp_Variant>
O=C1N([C@H]2CCCN(C(C=C)=O)C2)C3=NC=NC(N)=C3N1C4=CC=C(OC5=CC=CC=C5)C=C4-1

> <s_i_glide_gridfile>
glide-grid_1

> <i_i_glide_lignum>
2285

> <i_i_glide_rotatable_bonds>
6

> <r_i_docking_score>
-8.27928954169532

> <r_i_glide_ligand_efficiency>
-0.243508515932215

> <r_i_glide_ligand_efficiency_sa>
-0.788873060998287

> <r_i_glide_ligand_efficiency_ln>
-1.82912728596612

> <r_i_glide_gscore>
-8.28308954169532

> <r_i_glide_lipo>
-2.30105423699436

> <r_i_glide_hbond>
-0.598531002226123

> <r_i_glide_metal>
0

> <r_i_glide_rewards>
-2.97895803002823

> <r_i_glide_evdw>
-46.5957794189453

> <r_i_glide_ecoul>
-3.04984569549561

> <r_i_glide_erotb>
0.405056452363586

> <r_i_glide_esite>
-0.0223368995385858

> <r_i_glide_emodel>
-73.5252173514021

> <r_i_glide_energy>
-49.6456251144409

> <r_i_glide_einternal>
5.68691158294678

> <i_i_glide_confnum>
112

> <i_i_glide_posenum>
268

> <r_i_glide_eff_state_penalty>
0.0038

> <r_lp_tautomer_probability>
1

> <s_m_subgroup_title>
glide-dock_SP_top1262_2_pv

> <s_m_subgroupid>
glide-dock_SP_top1262_2_pv

> <b_m_subgroup_collapsed>
0

$$$$
O=C(NC)CCC1=NN(C2=CC=C(N3CCNCC3)C=C2)C(C4=CC=C(C5=CC=C(C(F)(F)F)C=C5)C=C4)=C1
                    3D
 Schrodinger Suite 2021-3.
  0  0  0     0  0            999 V3000
M  V30 BEGIN CTAB
M  V30 COUNTS 70 74 0 0 0
M  V30 BEGIN ATOM
M  V30 1 C  28.4491 43.7713 86.4723 0
M  V30 2 C  29.6350 44.5922 85.9228 0
M  V30 3 N  29.0690 45.7587 85.0995 0 CHG=1
M  V30 4 C  28.1839 45.2031 83.9708 0
M  V30 5 C  27.1358 44.1925 84.5147 0
M  V30 6 N  27.6814 43.1315 85.3902 0
M  V30 7 C  27.9115 41.8211 84.9583 0
M  V30 8 C  26.9643 41.1598 84.1629 0
M  V30 9 C  27.1723 39.8503 83.7365 0
M  V30 10 C  29.0646 41.1160 85.3371 0
M  V30 11 C  29.2651 39.7976 84.9389 0
M  V30 12 C  28.3183 39.1574 84.1321 0
M  V30 13 N  28.5438 37.8354 83.6717 0
M  V30 14 N  29.7775 37.5283 83.2361 0
M  V30 15 C  29.7047 36.3284 82.7142 0
M  V30 16 C  30.9115 35.7084 82.0434 0
M  V30 17 C  32.1596 35.6219 82.9595 0
M  V30 18 C  33.3273 34.7501 82.4635 0
M  V30 19 O  34.3017 34.6018 83.1974 0
M  V30 20 N  33.2483 34.1930 81.2429 0
M  V30 21 C  34.2695 33.3391 80.6498 0
M  V30 22 C  27.6585 36.7761 83.5121 0
M  V30 23 C  28.4129 35.8205 82.8436 0
M  V30 24 C  26.2339 36.7094 83.9692 0
M  V30 25 C  25.8513 37.3042 85.1727 0
M  V30 26 C  24.5264 37.2584 85.5872 0
M  V30 27 C  23.5568 36.6046 84.8197 0
M  V30 28 C  23.9531 35.9564 83.6423 0
M  V30 29 C  25.2819 36.0127 83.2181 0
M  V30 30 C  22.1272 36.6870 85.2326 0
M  V30 31 C  21.7565 36.5101 86.5709 0
M  V30 32 C  20.4615 36.7940 86.9918 0
M  V30 33 C  19.5142 37.2589 86.0777 0
M  V30 34 C  18.1509 37.7193 86.5897 0
M  V30 35 F  18.3449 38.7422 87.4236 0
M  V30 36 F  17.5471 36.7326 87.2505 0
M  V30 37 F  17.3465 38.1252 85.6047 0
M  V30 38 C  19.8488 37.3431 84.7221 0
M  V30 39 C  21.1451 37.0500 84.3056 0
M  V30 40 H  27.7779 44.4034 87.0573 0
M  V30 41 H  28.8099 43.0253 87.1810 0
M  V30 42 H  30.2771 44.0219 85.2456 0
M  V30 43 H  30.2451 45.0349 86.7105 0
M  V30 44 H  29.8316 46.2880 84.6941 0
M  V30 45 H  28.8831 44.7570 83.2669 0
M  V30 46 H  27.7202 46.0650 83.4897 0
M  V30 47 H  26.6368 43.7544 83.6502 0
M  V30 48 H  26.3476 44.7218 85.0536 0
M  V30 49 H  26.0506 41.6576 83.8724 0
M  V30 50 H  26.4388 39.3748 83.1031 0
M  V30 51 H  29.8294 41.5797 85.9405 0
M  V30 52 H  30.1654 39.2844 85.2477 0
M  V30 53 H  30.6497 34.7283 81.6449 0
M  V30 54 H  31.1597 36.3236 81.1758 0
M  V30 55 H  32.5175 36.6171 83.2275 0
M  V30 56 H  31.8511 35.1550 83.8970 0
M  V30 57 H  32.4214 34.3561 80.6788 0
M  V30 58 H  34.2382 33.4300 79.5637 0
M  V30 59 H  35.2733 33.6062 80.9838 0
M  V30 60 H  34.0856 32.2963 80.9065 0
M  V30 61 H  28.0766 34.8522 82.5016 0
M  V30 62 H  26.5752 37.8195 85.7870 0
M  V30 63 H  24.2498 37.7692 86.4981 0
M  V30 64 H  23.2250 35.4364 83.0351 0
M  V30 65 H  25.5663 35.5334 82.2933 0
M  V30 66 H  22.4829 36.1989 87.3044 0
M  V30 67 H  20.2089 36.7009 88.0384 0
M  V30 68 H  19.1260 37.6813 83.9936 0
M  V30 69 H  21.4023 37.1696 83.2637 0
M  V30 70 H  28.5346 46.3764 85.6940 0
M  V30 END ATOM
M  V30 BEGIN BOND
M  V30 1 1 1 2
M  V30 2 1 1 6
M  V30 3 1 1 40
M  V30 4 1 1 41
M  V30 5 1 2 3
M  V30 6 1 2 42
M  V30 7 1 2 43
M  V30 8 1 3 4
M  V30 9 1 3 44
M  V30 10 1 3 70
M  V30 11 1 4 5
M  V30 12 1 4 45
M  V30 13 1 4 46
M  V30 14 1 5 6
M  V30 15 1 5 47
M  V30 16 1 5 48
M  V30 17 1 6 7
M  V30 18 2 7 8
M  V30 19 1 7 10
M  V30 20 1 8 9
M  V30 21 1 8 49
M  V30 22 2 9 12
M  V30 23 1 9 50
M  V30 24 2 10 11
M  V30 25 1 10 51
M  V30 26 1 11 12
M  V30 27 1 11 52
M  V30 28 1 12 13
M  V30 29 1 13 14
M  V30 30 1 13 22
M  V30 31 2 14 15
M  V30 32 1 15 16
M  V30 33 1 15 23
M  V30 34 1 16 17
M  V30 35 1 16 53
M  V30 36 1 16 54
M  V30 37 1 17 18
M  V30 38 1 17 55
M  V30 39 1 17 56
M  V30 40 2 18 19
M  V30 41 1 18 20
M  V30 42 1 20 21
M  V30 43 1 20 57
M  V30 44 1 21 58
M  V30 45 1 21 59
M  V30 46 1 21 60
M  V30 47 2 22 23
M  V30 48 1 22 24
M  V30 49 1 23 61
M  V30 50 2 24 25
M  V30 51 1 24 29
M  V30 52 1 25 26
M  V30 53 1 25 62
M  V30 54 2 26 27
M  V30 55 1 26 63
M  V30 56 1 27 28
M  V30 57 1 27 30
M  V30 58 2 28 29
M  V30 59 1 28 64
M  V30 60 1 29 65
M  V30 61 2 30 31
M  V30 62 1 30 39
M  V30 63 1 31 32
M  V30 64 1 31 66
M  V30 65 2 32 33
M  V30 66 1 32 67
M  V30 67 1 33 34
M  V30 68 1 33 38
M  V30 69 1 34 35
M  V30 70 1 34 36
M  V30 71 1 34 37
M  V30 72 2 38 39
M  V30 73 1 38 68
M  V30 74 1 39 69
M  V30 END BOND
M  V30 END CTAB
M  END
> <s_m_entry_id>
347

> <s_m_entry_name>
result.1834

> <s_m_Source_Path>
D:\OneDrive - zju.edu.cn\DOC\A-Finished\LCK_VS\Planet\LCK-8617

> <s_m_Source_File>
glide-dock_SP_top1262_2_pv.maegz

> <i_m_Source_File_Index>
347

> <PLANET_affinity>
7.695

> <i_lp_mmshare_version>
54117

> <i_f3d_flags>
0

> <s_epik_input>
W0NIMl0xW0NIMl1bTkhdW0NIMl1bQ0gyXU4xYzJbY0hdW2NIXWMoW2NIXVtjSF0yKS1uM25jKFtDSDJdW0NIMl1DKD1PKVtOSF1bQ0gzXSlbY0hdYzMtYzRbY0hdW2NIXWMoW2NIXVtjSF00KS1jNVtjSF1bY0hdYyhDKEYpKEYpRilbY0hdW2NIXTU=

> <s_epik_cmdline>
J2VwaWtfcHl0aG9uJywgJy1waCcsICc3LjAnLCAnLXRuJywgJzgnLCAnLW1hJywgJzUwMCcsICctaW1hZScsICc8aW5maWxlLm1hZT4nLCAnLW9tYWUnLCAnPG91dGZpbGUubWFlPic=

> <r_epik_Ionization_Penalty>
  0.0086

> <r_epik_Ionization_Penalty_Charging>
  0.0086

> <r_epik_Ionization_Penalty_Neutral>
  0.0000

> <r_epik_State_Penalty>
  0.0065

> <r_epik_Charging_Adjusted_Penalty>
0.0150378

> <i_epik_Tot_Q>
1

> <i_epik_Tot_abs_Q>
1

> <s_lp_Force_Field>
S-OPLS

> <r_lp_Energy>
54.6854

> <b_lp_Chiralities_Consistent>
1

> <s_lp_Variant>
O=C(NC)CCC1=NN(C2=CC=C(N3CCNCC3)C=C2)C(C4=CC=C(C5=CC=C(C(F)(F)F)C=C5)C=C4)=C1-1

> <s_i_glide_gridfile>
glide-grid_1

> <i_i_glide_lignum>
1669

> <i_i_glide_rotatable_bonds>
9

> <r_i_docking_score>
-8.27768221589425

> <r_i_glide_ligand_efficiency>
-0.212248261946006

> <r_i_glide_ligand_efficiency_sa>
-0.71977873379218

> <r_i_glide_ligand_efficiency_ln>
-1.77497004307084

> <r_i_glide_gscore>
-8.28418221589425

> <r_i_glide_lipo>
-3.86857495670482

> <r_i_glide_hbond>
-0.32

> <r_i_glide_metal>
0

> <r_i_glide_rewards>
-1.06406194136633

> <r_i_glide_evdw>
-48.3302421569824

> <r_i_glide_ecoul>
-6.43691921234131

> <r_i_glide_erotb>
0.505524505690892

> <r_i_glide_esite>
-0.15501983381367

> <r_i_glide_emodel>
-83.6643941946019

> <r_i_glide_energy>
-54.7671613693237

> <r_i_glide_einternal>
2.41237044334412

> <i_i_glide_confnum>
82

> <i_i_glide_posenum>
76

> <r_i_glide_eff_state_penalty>
0.0065

> <r_lp_tautomer_probability>
1

> <s_m_subgroup_title>
glide-dock_SP_top1262_2_pv

> <s_m_subgroupid>
glide-dock_SP_top1262_2_pv

> <b_m_subgroup_collapsed>
0

$$$$
CC(C)(C)S(C1=C(OCCO)C=C(N=CN=C2NC3=CC(N=CS4)=C4C=C3)C2=C1)(=O)=O
                    3D
 Schrodinger Suite 2021-3.
  0  0  0     0  0            999 V3000
M  V30 BEGIN CTAB
M  V30 COUNTS 53 56 0 0 0
M  V30 BEGIN ATOM
M  V30 1 O  32.2410 35.8855 81.6427 0
M  V30 2 C  31.4940 36.9055 82.2793 0
M  V30 3 C  30.0382 36.4692 82.4735 0
M  V30 4 O  29.3415 37.4493 83.2463 0
M  V30 5 C  28.0215 37.2211 83.5909 0
M  V30 6 C  27.2229 36.3172 82.8765 0
M  V30 7 C  27.4516 37.9445 84.6521 0
M  V30 8 S  28.3974 39.1569 85.6031 0
M  V30 9 O  29.8087 38.7566 85.5930 0
M  V30 10 O  27.7012 39.3130 86.8878 0
M  V30 11 C  28.2330 40.7981 84.6294 0
M  V30 12 C  28.9961 41.8784 85.4230 0
M  V30 13 C  26.7422 41.1750 84.5073 0
M  V30 14 C  28.8752 40.6267 83.2396 0
M  V30 15 C  26.1103 37.7523 85.0045 0
M  V30 16 C  25.2888 36.8540 84.2777 0
M  V30 17 C  25.8673 36.1333 83.1976 0
M  V30 18 C  23.9007 36.6099 84.5115 0
M  V30 19 N  23.1666 35.7887 83.7191 0
M  V30 20 C  23.8335 35.1567 82.7318 0
M  V30 21 N  25.1478 35.2618 82.4437 0
M  V30 22 N  23.2447 37.1659 85.6219 0
M  V30 23 C  21.8780 37.1934 85.9201 0
M  V30 24 C  20.9678 37.7532 85.0184 0
M  V30 25 C  21.4478 36.6845 87.1443 0
M  V30 26 C  20.1039 36.6998 87.5126 0
M  V30 27 C  19.2004 37.3114 86.6443 0
M  V30 28 C  19.6201 37.8425 85.3948 0
M  V30 29 S  17.4739 37.5608 86.8393 0
M  V30 30 C  17.4907 38.3567 85.2839 0
M  V30 31 N  18.6318 38.4149 84.6559 0
M  V30 32 H  31.8198 35.6351 80.8070 0
M  V30 33 H  31.5372 37.8277 81.6975 0
M  V30 34 H  31.9454 37.1416 83.2452 0
M  V30 35 H  30.0029 35.5047 82.9872 0
M  V30 36 H  29.5835 36.3564 81.4893 0
M  V30 37 H  27.6140 35.7520 82.0445 0
M  V30 38 H  28.9677 42.8481 84.9207 0
M  V30 39 H  30.0473 41.6090 85.5476 0
M  V30 40 H  28.5801 42.0071 86.4238 0
M  V30 41 H  26.1855 40.4492 83.9131 0
M  V30 42 H  26.2632 41.2176 85.4870 0
M  V30 43 H  26.6083 42.1533 84.0443 0
M  V30 44 H  28.2926 39.9505 82.6126 0
M  V30 45 H  28.9658 41.5845 82.7272 0
M  V30 46 H  29.8820 40.2112 83.3154 0
M  V30 47 H  25.6800 38.3142 85.8205 0
M  V30 48 H  23.2822 34.4597 82.1222 0
M  V30 49 H  23.8444 37.5677 86.3255 0
M  V30 50 H  21.3054 38.1491 84.0739 0
M  V30 51 H  22.1632 36.2346 87.8167 0
M  V30 52 H  19.7697 36.2695 88.4436 0
M  V30 53 H  16.5702 38.7570 84.8787 0
M  V30 END ATOM
M  V30 BEGIN BOND
M  V30 1 1 1 2
M  V30 2 1 1 32
M  V30 3 1 2 3
M  V30 4 1 2 33
M  V30 5 1 2 34
M  V30 6 1 3 4
M  V30 7 1 3 35
M  V30 8 1 3 36
M  V30 9 1 4 5
M  V30 10 2 5 6
M  V30 11 1 5 7
M  V30 12 1 6 17
M  V30 13 1 6 37
M  V30 14 1 7 8
M  V30 15 2 7 15
M  V30 16 2 8 9
M  V30 17 2 8 10
M  V30 18 1 8 11
M  V30 19 1 11 12
M  V30 20 1 11 13
M  V30 21 1 11 14
M  V30 22 1 12 38
M  V30 23 1 12 39
M  V30 24 1 12 40
M  V30 25 1 13 41
M  V30 26 1 13 42
M  V30 27 1 13 43
M  V30 28 1 14 44
M  V30 29 1 14 45
M  V30 30 1 14 46
M  V30 31 1 15 16
M  V30 32 1 15 47
M  V30 33 2 16 17
M  V30 34 1 16 18
M  V30 35 1 17 21
M  V30 36 2 18 19
M  V30 37 1 18 22
M  V30 38 1 19 20
M  V30 39 2 20 21
M  V30 40 1 20 48
M  V30 41 1 22 23
M  V30 42 1 22 49
M  V30 43 2 23 24
M  V30 44 1 23 25
M  V30 45 1 24 28
M  V30 46 1 24 50
M  V30 47 2 25 26
M  V30 48 1 25 51
M  V30 49 1 26 27
M  V30 50 1 26 52
M  V30 51 2 27 28
M  V30 52 1 27 29
M  V30 53 1 28 31
M  V30 54 1 29 30
M  V30 55 2 30 31
M  V30 56 1 30 53
M  V30 END BOND
M  V30 END CTAB
M  END
> <s_m_entry_id>
352

> <s_m_entry_name>
result.7655

> <s_m_Source_Path>
D:\OneDrive - zju.edu.cn\DOC\A-Finished\LCK_VS\Planet\LCK-8617

> <s_m_Source_File>
glide-dock_SP_top1262_2_pv.maegz

> <i_m_Source_File_Index>
352

> <PLANET_affinity>
7.945

> <i_lp_mmshare_version>
54117

> <i_f3d_flags>
0

> <s_epik_input>
W09IXVtDSDJdW0NIMl1PYyhjKFtjSF0xKVMoPU8pKD1PKUMoW0NIM10pKFtDSDNdKVtDSDNdKVtjSF1jKGMxMiluW2NIXW5jMltOSF1jKFtjSF1bY0hdMylbY0hdYyhjMzQpbltjSF1zNA==

> <s_epik_cmdline>
J2VwaWtfcHl0aG9uJywgJy1waCcsICc3LjAnLCAnLXRuJywgJzgnLCAnLW1hJywgJzUwMCcsICctaW1hZScsICc8aW5maWxlLm1hZT4nLCAnLW9tYWUnLCAnPG91dGZpbGUubWFlPic=

> <r_epik_Ionization_Penalty>
  0.0002

> <r_epik_Ionization_Penalty_Charging>
  0.0000

> <r_epik_Ionization_Penalty_Neutral>
  0.0002

> <r_epik_State_Penalty>
  0.0000

> <r_epik_Charging_Adjusted_Penalty>
0

> <i_epik_Tot_Q>
0

> <i_epik_Tot_abs_Q>
0

> <s_lp_Force_Field>
S-OPLS

> <r_lp_Energy>
26.3024

> <b_lp_Chiralities_Consistent>
1

> <s_lp_Variant>
CC(C)(C)S(C1=C(OCCO)C=C(N=CN=C2NC3=CC(N=CS4)=C4C=C3)C2=C1)(=O)=O-1

> <s_i_glide_gridfile>
glide-grid_1

> <i_i_glide_lignum>
1359

> <i_i_glide_rotatable_bonds>
8

> <r_i_docking_score>
-8.2729947130395

> <r_i_glide_ligand_efficiency>
-0.266870797194823

> <r_i_glide_ligand_efficiency_sa>
-0.838342758036464

> <r_i_glide_ligand_efficiency_ln>
-1.86581384462974

> <r_i_glide_gscore>
-8.2729947130395

> <r_i_glide_lipo>
-3.48056384119692

> <r_i_glide_hbond>
-0.557003534164854

> <r_i_glide_metal>
0

> <r_i_glide_rewards>
-1.58621315442588

> <r_i_glide_evdw>
-50.6498222351074

> <r_i_glide_ecoul>
-4.60435104370117

> <r_i_glide_erotb>
0.5739295850587

> <r_i_glide_esite>
0

> <r_i_glide_emodel>
-77.6675488922448

> <r_i_glide_energy>
-55.2541732788086

> <r_i_glide_einternal>
10.2462587356567

> <i_i_glide_confnum>
2

> <i_i_glide_posenum>
167

> <r_i_glide_eff_state_penalty>
0

> <r_lp_tautomer_probability>
1

> <s_m_subgroup_title>
glide-dock_SP_top1262_2_pv

> <s_m_subgroupid>
glide-dock_SP_top1262_2_pv

> <b_m_subgroup_collapsed>
0

$$$$
O=C(NC1=CC=CC(C(F)(F)F)=C1)NC2=CC=C(C3=CC=C(C4=NC=C(C)N4)C5=C3CNC5=O)C(F)=C2
                    3D
 Schrodinger Suite 2021-3.
  0  0  0     0  0            999 V3000
M  V30 BEGIN CTAB
M  V30 COUNTS 57 61 0 0 0
M  V30 BEGIN ATOM
M  V30 1 F  36.9087 39.8006 81.9176 0
M  V30 2 C  36.7056 40.0346 80.6205 0
M  V30 3 F  35.9975 41.1561 80.4936 0
M  V30 4 F  37.8950 40.2212 80.0446 0
M  V30 5 C  35.9295 38.8838 79.9816 0
M  V30 6 C  34.8041 38.3630 80.6324 0
M  V30 7 C  36.3214 38.3376 78.7525 0
M  V30 8 C  35.6001 37.2884 78.1865 0
M  V30 9 C  34.4830 36.7732 78.8422 0
M  V30 10 C  34.0680 37.3108 80.0637 0
M  V30 11 N  32.9295 36.7303 80.6518 0
M  V30 12 C  32.1207 37.2320 81.6044 0
M  V30 13 O  32.2459 38.3397 82.1259 0
M  V30 14 N  31.1212 36.3662 81.8540 0
M  V30 15 C  29.9156 36.5770 82.5440 0
M  V30 16 C  28.9768 35.5569 82.4435 0
M  V30 17 C  27.7103 35.7031 82.9985 0
M  V30 18 C  27.3311 36.8647 83.6904 0
M  V30 19 C  28.2891 37.8965 83.7705 0
M  V30 20 F  27.9925 39.0873 84.3416 0
M  V30 21 C  29.5701 37.7418 83.2435 0
M  V30 22 C  25.9803 36.9850 84.3539 0
M  V30 23 C  24.8054 36.3937 83.8374 0
M  V30 24 C  23.5712 36.6202 84.4434 0
M  V30 25 C  24.5696 35.5094 82.6407 0
M  V30 26 N  23.1336 35.3113 82.6649 0
M  V30 27 C  22.4927 35.9538 83.6442 0
M  V30 28 O  21.2808 35.9567 83.8287 0
M  V30 29 C  25.8492 37.7258 85.5427 0
M  V30 30 C  24.6115 37.9568 86.1401 0
M  V30 31 C  23.4524 37.4100 85.5939 0
M  V30 32 C  22.1389 37.6940 86.2350 0
M  V30 33 N  21.2461 36.7794 86.7517 0 CHG=1
M  V30 34 C  20.1081 37.4389 87.1878 0
M  V30 35 C  20.2729 38.7973 86.9307 0
M  V30 36 C  19.3616 39.9818 87.1266 0
M  V30 37 N  21.5340 38.9256 86.3685 0
M  V30 38 H  34.5229 38.7858 81.5853 0
M  V30 39 H  37.1836 38.7255 78.2289 0
M  V30 40 H  35.9048 36.8706 77.2374 0
M  V30 41 H  33.9374 35.9587 78.3863 0
M  V30 42 H  32.6325 35.8630 80.2277 0
M  V30 43 H  31.1800 35.4759 81.3807 0
M  V30 44 H  29.2151 34.6442 81.9146 0
M  V30 45 H  27.0634 34.8492 82.9307 0
M  V30 46 H  30.2537 38.5690 83.3449 0
M  V30 47 H  24.8900 35.9649 81.7027 0
M  V30 48 H  25.0288 34.5273 82.7286 0
M  V30 49 H  22.6466 34.6676 82.0471 0
M  V30 50 H  26.7181 38.1527 86.0209 0
M  V30 51 H  24.5635 38.5582 87.0373 0
M  V30 52 H  19.2752 36.8886 87.6048 0
M  V30 53 H  18.4831 39.7282 87.7193 0
M  V30 54 H  19.8568 40.8148 87.6265 0
M  V30 55 H  18.9920 40.3576 86.1730 0
M  V30 56 H  21.9299 39.7961 86.0429 0
M  V30 57 H  21.3927 35.7783 86.7679 0
M  V30 END ATOM
M  V30 BEGIN BOND
M  V30 1 1 1 2
M  V30 2 1 2 3
M  V30 3 1 2 4
M  V30 4 1 2 5
M  V30 5 2 5 6
M  V30 6 1 5 7
M  V30 7 1 6 10
M  V30 8 1 6 38
M  V30 9 2 7 8
M  V30 10 1 7 39
M  V30 11 1 8 9
M  V30 12 1 8 40
M  V30 13 2 9 10
M  V30 14 1 9 41
M  V30 15 1 10 11
M  V30 16 1 11 12
M  V30 17 1 11 42
M  V30 18 2 12 13
M  V30 19 1 12 14
M  V30 20 1 14 15
M  V30 21 1 14 43
M  V30 22 2 15 16
M  V30 23 1 15 21
M  V30 24 1 16 17
M  V30 25 1 16 44
M  V30 26 2 17 18
M  V30 27 1 17 45
M  V30 28 1 18 19
M  V30 29 1 18 22
M  V30 30 1 19 20
M  V30 31 2 19 21
M  V30 32 1 21 46
M  V30 33 2 22 23
M  V30 34 1 22 29
M  V30 35 1 23 24
M  V30 36 1 23 25
M  V30 37 2 24 31
M  V30 38 1 24 27
M  V30 39 1 25 26
M  V30 40 1 25 47
M  V30 41 1 25 48
M  V30 42 1 26 27
M  V30 43 1 26 49
M  V30 44 2 27 28
M  V30 45 2 29 30
M  V30 46 1 29 50
M  V30 47 1 30 31
M  V30 48 1 30 51
M  V30 49 1 31 32
M  V30 50 2 32 33
M  V30 51 1 32 37
M  V30 52 1 33 34
M  V30 53 1 33 57
M  V30 54 2 34 35
M  V30 55 1 34 52
M  V30 56 1 35 36
M  V30 57 1 35 37
M  V30 58 1 36 53
M  V30 59 1 36 54
M  V30 60 1 36 55
M  V30 61 1 37 56
M  V30 END BOND
M  V30 END CTAB
M  END
> <s_m_entry_id>
354

> <s_m_entry_name>
result.1788

> <s_m_Source_Path>
D:\OneDrive - zju.edu.cn\DOC\A-Finished\LCK_VS\Planet\LCK-8617

> <s_m_Source_File>
glide-dock_SP_top1262_2_pv.maegz

> <i_m_Source_File_Index>
354

> <PLANET_affinity>
7.451

> <i_lp_mmshare_version>
54117

> <i_f3d_flags>
0

> <s_epik_input>
RkMoRikoRiljMVtjSF1jKFtjSF1bY0hdW2NIXTEpW05IXUMoPU8pW05IXWMyW2NIXVtjSF1jKGMoRilbY0hdMiktYzNbY0hdW2NIXWMoYyhjMzQpQyg9TylbTkhdW0NIMl00KS1jNW5bY0hdYyhbQ0gzXSlbbkhdNQ==

> <s_epik_cmdline>
J2VwaWtfcHl0aG9uJywgJy1waCcsICc3LjAnLCAnLXRuJywgJzgnLCAnLW1hJywgJzUwMCcsICctaW1hZScsICc8aW5maWxlLm1hZT4nLCAnLW9tYWUnLCAnPG91dGZpbGUubWFlPic=

> <r_epik_Ionization_Penalty>
  0.4217

> <r_epik_Ionization_Penalty_Charging>
  0.0000

> <r_epik_Ionization_Penalty_Neutral>
  0.4217

> <r_epik_State_Penalty>
  0.3391

> <r_epik_Charging_Adjusted_Penalty>
0.339083

> <i_epik_Tot_Q>
1

> <i_epik_Tot_abs_Q>
1

> <s_lp_Force_Field>
S-OPLS

> <r_lp_Energy>
46.589

> <b_lp_Chiralities_Consistent>
1

> <s_lp_Variant>
O=C(NC1=CC=CC(C(F)(F)F)=C1)NC2=CC=C(C3=CC=C(C4=NC=C(C)N4)C5=C3CNC5=O)C(F)=C2-1

> <s_i_glide_gridfile>
glide-grid_1

> <i_i_glide_lignum>
2000

> <i_i_glide_rotatable_bonds>
7

> <r_i_docking_score>
-8.2703865879154

> <r_i_glide_ligand_efficiency>
-0.223523961835551

> <r_i_glide_ligand_efficiency_sa>
-0.744831429098392

> <r_i_glide_ligand_efficiency_ln>
-1.79365296554859

> <r_i_glide_gscore>
-8.6094865879154

> <r_i_glide_lipo>
-2.79315996780421

> <r_i_glide_hbond>
-0.850333975176555

> <r_i_glide_metal>
0

> <r_i_glide_rewards>
-1.76765333796786

> <r_i_glide_evdw>
-41.8951187133789

> <r_i_glide_ecoul>
-9.43748378753662

> <r_i_glide_erotb>
0.33021127427541

> <r_i_glide_esite>
-0.0181720774427502

> <r_i_glide_emodel>
-78.2074783550268

> <r_i_glide_energy>
-51.3326025009155

> <r_i_glide_einternal>
6.07999038696289

> <i_i_glide_confnum>
70

> <i_i_glide_posenum>
154

> <r_i_glide_eff_state_penalty>
0.3391

> <r_lp_tautomer_probability>
1

> <s_m_subgroup_title>
glide-dock_SP_top1262_2_pv

> <s_m_subgroupid>
glide-dock_SP_top1262_2_pv

> <b_m_subgroup_collapsed>
0

$$$$
O=C1NC(NCC2=CC=C(Cl)C(Cl)=C2)=NC3=C1N(CCN4CCOCC4)C=N3
                    3D
 Schrodinger Suite 2021-3.
  0  0  0     0  0            999 V3000
M  V30 BEGIN CTAB
M  V30 COUNTS 48 51 0 0 0
M  V30 BEGIN ATOM
M  V30 1 C  19.3004 37.9755 86.1109 0
M  V30 2 C  17.8187 38.1035 85.6771 0
M  V30 3 O  17.7117 38.7575 84.4144 0
M  V30 4 C  18.4460 38.0804 83.4019 0
M  V30 5 C  19.9412 38.0383 83.7826 0
M  V30 6 N  20.1668 37.3757 85.0766 0
M  V30 7 C  21.5732 37.4678 85.4935 0
M  V30 8 C  22.5530 36.6118 84.6436 0
M  V30 9 N  23.9560 36.9935 84.8432 0
M  V30 10 C  24.5126 37.7764 85.8371 0
M  V30 11 N  25.8092 37.9570 85.7248 0
M  V30 12 C  25.0455 36.6396 84.0793 0
M  V30 13 C  26.1485 37.2804 84.6436 0
M  V30 14 C  25.1922 35.7935 82.9013 0
M  V30 15 O  24.3352 35.1630 82.2897 0
M  V30 16 N  26.5122 35.7594 82.5343 0
M  V30 17 C  27.5980 36.3563 83.1480 0
M  V30 18 N  27.4166 37.1558 84.1510 0
M  V30 19 N  28.8817 35.9938 82.6524 0
M  V30 20 C  30.1034 36.2113 83.4247 0
M  V30 21 C  30.9155 37.3505 82.8422 0
M  V30 22 C  30.8204 38.6377 83.3777 0
M  V30 23 C  31.5771 39.6803 82.8376 0
M  V30 24 C  32.4361 39.4389 81.7637 0
M  V30 25 Cl 33.3431 40.7552 81.1049 0
M  V30 26 C  32.5428 38.1489 81.2309 0
M  V30 27 Cl 33.5871 37.8077 79.8943 0
M  V30 28 C  31.7843 37.1112 81.7732 0
M  V30 29 H  19.6675 38.9748 86.3585 0
M  V30 30 H  19.3803 37.3956 87.0322 0
M  V30 31 H  17.3292 37.1288 85.6436 0
M  V30 32 H  17.2684 38.6884 86.4153 0
M  V30 33 H  18.0532 37.0751 83.2460 0
M  V30 34 H  18.3079 38.6106 82.4594 0
M  V30 35 H  20.5040 37.5573 82.9872 0
M  V30 36 H  20.3299 39.0564 83.8390 0
M  V30 37 H  21.8763 38.5171 85.4810 0
M  V30 38 H  21.6455 37.1235 86.5297 0
M  V30 39 H  22.4477 35.5552 84.8883 0
M  V30 40 H  22.3535 36.7207 83.5798 0
M  V30 41 H  23.8962 38.1914 86.6198 0
M  V30 42 H  26.7115 35.1998 81.7207 0
M  V30 43 H  29.0034 35.8649 81.6566 0
M  V30 44 H  29.8653 36.4122 84.4701 0
M  V30 45 H  30.6797 35.2850 83.3827 0
M  V30 46 H  30.1544 38.8336 84.2057 0
M  V30 47 H  31.4912 40.6786 83.2489 0
M  V30 48 H  31.8668 36.1185 81.3506 0
M  V30 END ATOM
M  V30 BEGIN BOND
M  V30 1 1 1 2
M  V30 2 1 1 6
M  V30 3 1 1 29
M  V30 4 1 1 30
M  V30 5 1 2 3
M  V30 6 1 2 31
M  V30 7 1 2 32
M  V30 8 1 3 4
M  V30 9 1 4 5
M  V30 10 1 4 33
M  V30 11 1 4 34
M  V30 12 1 5 6
M  V30 13 1 5 35
M  V30 14 1 5 36
M  V30 15 1 6 7
M  V30 16 1 7 8
M  V30 17 1 7 37
M  V30 18 1 7 38
M  V30 19 1 8 9
M  V30 20 1 8 39
M  V30 21 1 8 40
M  V30 22 1 9 10
M  V30 23 1 9 12
M  V30 24 2 10 11
M  V30 25 1 10 41
M  V30 26 1 11 13
M  V30 27 2 12 13
M  V30 28 1 12 14
M  V30 29 1 13 18
M  V30 30 2 14 15
M  V30 31 1 14 16
M  V30 32 1 16 17
M  V30 33 1 16 42
M  V30 34 2 17 18
M  V30 35 1 17 19
M  V30 36 1 19 20
M  V30 37 1 19 43
M  V30 38 1 20 21
M  V30 39 1 20 44
M  V30 40 1 20 45
M  V30 41 2 21 22
M  V30 42 1 21 28
M  V30 43 1 22 23
M  V30 44 1 22 46
M  V30 45 2 23 24
M  V30 46 1 23 47
M  V30 47 1 24 25
M  V30 48 1 24 26
M  V30 49 1 26 27
M  V30 50 2 26 28
M  V30 51 1 28 48
M  V30 END BOND
M  V30 END CTAB
M  END
> <s_m_entry_id>
368

> <s_m_entry_name>
result.701

> <s_m_Source_Path>
D:\OneDrive - zju.edu.cn\DOC\A-Finished\LCK_VS\Planet\LCK-8617

> <s_m_Source_File>
glide-dock_SP_top1262_2_pv.maegz

> <i_m_Source_File_Index>
368

> <PLANET_affinity>
7.421

> <i_lp_mmshare_version>
54117

> <i_f3d_flags>
0

> <s_epik_input>
W0NIMl0xW0NIMl1PW0NIMl1bQ0gyXU4xW0NIMl1bQ0gyXW4yW2NIXW5jKGMyMyluYyhbbkhdYzM9TylbTkhdW0NIMl1jNFtjSF1bY0hdYyhDbCljKENsKVtjSF00

> <s_epik_cmdline>
J2VwaWtfcHl0aG9uJywgJy1waCcsICc3LjAnLCAnLXRuJywgJzgnLCAnLW1hJywgJzUwMCcsICctaW1hZScsICc8aW5maWxlLm1hZT4nLCAnLW9tYWUnLCAnPG91dGZpbGUubWFlPic=

> <r_epik_Ionization_Penalty>
  0.0900

> <r_epik_Ionization_Penalty_Charging>
  0.0014

> <r_epik_Ionization_Penalty_Neutral>
  0.0886

> <r_epik_State_Penalty>
  0.0783

> <r_epik_Charging_Adjusted_Penalty>
0.0797016

> <i_epik_Tot_Q>
0

> <i_epik_Tot_abs_Q>
0

> <s_lp_Force_Field>
S-OPLS

> <r_lp_Energy>
45.6738

> <b_lp_Chiralities_Consistent>
1

> <s_lp_Variant>
O=C1NC(NCC2=CC=C(Cl)C(Cl)=C2)=NC3=C1N(CCN4CCOCC4)C=N3-1

> <s_i_glide_gridfile>
glide-grid_1

> <i_i_glide_lignum>
2059

> <i_i_glide_rotatable_bonds>
6

> <r_i_docking_score>
-8.2380344468236

> <r_i_glide_ligand_efficiency>
-0.294215515957986

> <r_i_glide_ligand_efficiency_sa>
-0.893411590120385

> <r_i_glide_ligand_efficiency_ln>
-1.90158022952855

> <r_i_glide_gscore>
-8.31633444682361

> <r_i_glide_lipo>
-2.77917860406956

> <r_i_glide_hbond>
-0.68933267840851

> <r_i_glide_metal>
0

> <r_i_glide_rewards>
-2.13181576338132

> <r_i_glide_evdw>
-44.2186164855957

> <r_i_glide_ecoul>
-6.46411800384521

> <r_i_glide_erotb>
0.46454112389235

> <r_i_glide_esite>
0

> <r_i_glide_emodel>
-70.3445829863136

> <r_i_glide_energy>
-50.6827344894409

> <r_i_glide_einternal>
11.5612983703613

> <i_i_glide_confnum>
170

> <i_i_glide_posenum>
274

> <r_i_glide_eff_state_penalty>
0.0783

> <r_lp_tautomer_probability>
0.988839

> <s_m_subgroup_title>
glide-dock_SP_top1262_2_pv

> <s_m_subgroupid>
glide-dock_SP_top1262_2_pv

> <b_m_subgroup_collapsed>
0

$$$$
NC1=NC=NC2=C1C(C3=CC4=C(C=C3)OC(N)=N4)=NN2C(C)C
                    3D
 Schrodinger Suite 2021-3.
  0  0  0     0  0            999 V3000
M  V30 BEGIN CTAB
M  V30 COUNTS 38 41 0 0 0
M  V30 BEGIN ATOM
M  V30 1 N  26.8321 36.7566 83.8580 0
M  V30 2 C  26.5997 35.8813 82.8438 0
M  V30 3 N  25.4130 35.3329 82.4766 0
M  V30 4 C  24.3272 35.7027 83.1985 0
M  V30 5 N  23.1084 35.1563 82.8430 0
M  V30 6 C  24.4227 36.6027 84.2718 0
M  V30 7 C  25.7255 37.0736 84.5437 0
M  V30 8 C  23.5760 37.2565 85.2344 0
M  V30 9 N  24.3132 37.9864 86.0418 0
M  V30 10 N  25.6044 37.8934 85.6477 0
M  V30 11 C  26.6537 38.6335 86.3553 0
M  V30 12 C  26.5745 38.3579 87.8677 0
M  V30 13 C  26.5660 40.1337 86.0205 0
M  V30 14 C  22.0819 37.2592 85.3603 0
M  V30 15 C  21.4786 37.3033 86.6278 0
M  V30 16 C  21.2822 37.2483 84.2066 0
M  V30 17 C  19.8971 37.3967 84.2422 0
M  V30 18 C  19.3338 37.4556 85.5073 0
M  V30 19 C  20.0812 37.3858 86.6924 0
M  V30 20 O  18.0240 37.5568 85.8321 0
M  V30 21 C  18.0559 37.5092 87.1891 0
M  V30 22 N  19.2322 37.4205 87.7551 0
M  V30 23 N  16.8629 37.5560 87.8046 0
M  V30 24 H  27.4669 35.5778 82.2754 0
M  V30 25 H  22.3151 35.3262 83.4411 0
M  V30 26 H  23.0423 34.4766 82.0951 0
M  V30 27 H  27.6138 38.2568 85.9970 0
M  V30 28 H  27.4631 38.7185 88.3875 0
M  V30 29 H  25.7052 38.8347 88.3224 0
M  V30 30 H  26.4839 37.2864 88.0438 0
M  V30 31 H  27.3717 40.6898 86.5005 0
M  V30 32 H  26.6470 40.3041 84.9463 0
M  V30 33 H  25.6223 40.5671 86.3541 0
M  V30 34 H  22.0715 37.2866 87.5297 0
M  V30 35 H  21.7376 37.1567 83.2434 0
M  V30 36 H  19.2867 37.4708 83.3552 0
M  V30 37 H  16.7977 37.7495 88.7937 0
M  V30 38 H  16.0301 37.7292 87.2643 0
M  V30 END ATOM
M  V30 BEGIN BOND
M  V30 1 2 1 2
M  V30 2 1 1 7
M  V30 3 1 2 3
M  V30 4 1 2 24
M  V30 5 2 3 4
M  V30 6 1 4 5
M  V30 7 1 4 6
M  V30 8 1 5 25
M  V30 9 1 5 26
M  V30 10 2 6 7
M  V30 11 1 6 8
M  V30 12 1 7 10
M  V30 13 2 8 9
M  V30 14 1 8 14
M  V30 15 1 9 10
M  V30 16 1 10 11
M  V30 17 1 11 12
M  V30 18 1 11 13
M  V30 19 1 11 27
M  V30 20 1 12 28
M  V30 21 1 12 29
M  V30 22 1 12 30
M  V30 23 1 13 31
M  V30 24 1 13 32
M  V30 25 1 13 33
M  V30 26 2 14 15
M  V30 27 1 14 16
M  V30 28 1 15 19
M  V30 29 1 15 34
M  V30 30 2 16 17
M  V30 31 1 16 35
M  V30 32 1 17 18
M  V30 33 1 17 36
M  V30 34 2 18 19
M  V30 35 1 18 20
M  V30 36 1 19 22
M  V30 37 1 20 21
M  V30 38 2 21 22
M  V30 39 1 21 23
M  V30 40 1 23 37
M  V30 41 1 23 38
M  V30 END BOND
M  V30 END CTAB
M  END
> <s_m_entry_id>
369

> <s_m_entry_name>
result.2757

> <s_m_Source_Path>
D:\OneDrive - zju.edu.cn\DOC\A-Finished\LCK_VS\Planet\LCK-8617

> <s_m_Source_File>
glide-dock_SP_top1262_2_pv.maegz

> <i_m_Source_File_Index>
369

> <PLANET_affinity>
7.278

> <i_lp_mmshare_version>
54117

> <i_f3d_flags>
0

> <s_epik_input>
W05IMl1jMW5bY0hdbmMoYzEyKW4oW0NIXShbQ0gzXSlbQ0gzXSluYzItYyhbY0hdW2NIXTMpW2NIXWMoYzM0KW5jKG80KVtOSDJd

> <s_epik_cmdline>
J2VwaWtfcHl0aG9uJywgJy1waCcsICc3LjAnLCAnLXRuJywgJzgnLCAnLW1hJywgJzUwMCcsICctaW1hZScsICc8aW5maWxlLm1hZT4nLCAnLW9tYWUnLCAnPG91dGZpbGUubWFlPic=

> <r_epik_Ionization_Penalty>
  0.0009

> <r_epik_Ionization_Penalty_Charging>
  0.0000

> <r_epik_Ionization_Penalty_Neutral>
  0.0009

> <r_epik_State_Penalty>
  0.0000

> <r_epik_Charging_Adjusted_Penalty>
0

> <i_epik_Tot_Q>
0

> <i_epik_Tot_abs_Q>
0

> <s_lp_Force_Field>
S-OPLS

> <r_lp_Energy>
16.0789

> <b_lp_Chiralities_Consistent>
1

> <s_lp_Variant>
NC1=NC=NC2=C1C(C3=CC4=C(C=C3)OC(N)=N4)=NN2C(C)C-1

> <s_i_glide_gridfile>
glide-grid_1

> <i_i_glide_lignum>
2275

> <i_i_glide_rotatable_bonds>
2

> <r_i_docking_score>
-8.23206817860683

> <r_i_glide_ligand_efficiency>
-0.357916007765514

> <r_i_glide_ligand_efficiency_sa>
-1.01786551498081

> <r_i_glide_ligand_efficiency_ln>
-1.99058872985445

> <r_i_glide_gscore>
-8.23206817860683

> <r_i_glide_lipo>
-2.37968493509688

> <r_i_glide_hbond>
-0.457767957837432

> <r_i_glide_metal>
0

> <r_i_glide_rewards>
-3.08797161202501

> <r_i_glide_evdw>
-33.8164596557617

> <r_i_glide_ecoul>
-4.827317237854

> <r_i_glide_erotb>
0.135449876621794

> <r_i_glide_esite>
-0.0271729818031114

> <r_i_glide_emodel>
-58.7835009828681

> <r_i_glide_energy>
-38.6437768936157

> <r_i_glide_einternal>
0.26181948184967

> <i_i_glide_confnum>
2

> <i_i_glide_posenum>
248

> <r_i_glide_eff_state_penalty>
0

> <r_lp_tautomer_probability>
1

> <s_m_subgroup_title>
glide-dock_SP_top1262_2_pv

> <s_m_subgroupid>
glide-dock_SP_top1262_2_pv

> <b_m_subgroup_collapsed>
0

$$$$
CC(N1)=CC2=C1C=CC(NC3=NC(NC4=CC5=C(NC(C)=C5)C=C4)=NC=C3)=C2
                    3D
 Schrodinger Suite 2021-3.
  0  0  0     0  0            999 V3000
M  V30 BEGIN CTAB
M  V30 COUNTS 48 52 0 0 0
M  V30 BEGIN ATOM
M  V30 1 C  16.9187 37.3769 87.4926 0
M  V30 2 C  18.3788 37.6159 87.2255 0
M  V30 3 C  19.4192 36.7285 87.0576 0
M  V30 4 N  18.8812 38.8899 87.0956 0
M  V30 5 C  20.2164 38.8497 86.7355 0
M  V30 6 C  20.5754 37.4717 86.6773 0
M  V30 7 C  21.1340 39.8645 86.4423 0
M  V30 8 C  22.4075 39.4612 86.0249 0
M  V30 9 C  22.7644 38.1157 85.8981 0
M  V30 10 C  21.8697 37.1147 86.2809 0
M  V30 11 N  24.0269 37.7983 85.3726 0
M  V30 12 C  24.4006 36.8111 84.4491 0
M  V30 13 N  25.7200 36.7751 84.1243 0
M  V30 14 C  26.0923 35.9213 83.1332 0
M  V30 15 N  25.2509 35.1143 82.4456 0
M  V30 16 C  23.9452 35.1566 82.7937 0
M  V30 17 C  23.4676 35.9910 83.7986 0
M  V30 18 N  27.4215 35.8119 82.7177 0
M  V30 19 C  28.6404 36.4034 83.0703 0
M  V30 20 C  29.7531 35.9588 82.3581 0
M  V30 21 C  28.7812 37.3894 84.0536 0
M  V30 22 C  30.0178 37.9595 84.3648 0
M  V30 23 C  31.1231 37.5062 83.6379 0
M  V30 24 C  31.0102 36.5109 82.6283 0
M  V30 25 N  32.4562 37.8550 83.6920 0
M  V30 26 C  33.1910 37.1427 82.7740 0
M  V30 27 C  34.6800 37.3473 82.6461 0
M  V30 28 C  32.3221 36.3102 82.0957 0
M  V30 29 H  16.6254 36.3575 87.2436 0
M  V30 30 H  16.2868 38.0293 86.8891 0
M  V30 31 H  16.6614 37.5543 88.5369 0
M  V30 32 H  19.3297 35.6548 87.1311 0
M  V30 33 H  18.2908 39.7060 87.2149 0
M  V30 34 H  20.8669 40.9106 86.4926 0
M  V30 35 H  23.1210 40.2241 85.7479 0
M  V30 36 H  22.1553 36.0742 86.2381 0
M  V30 37 H  24.7428 38.4928 85.5084 0
M  V30 38 H  23.2833 34.5117 82.2376 0
M  V30 39 H  22.4107 36.0314 84.0002 0
M  V30 40 H  27.5121 35.1805 81.9331 0
M  V30 41 H  29.6552 35.2023 81.5929 0
M  V30 42 H  27.9234 37.7344 84.6056 0
M  V30 43 H  30.1063 38.7152 85.1319 0
M  V30 44 H  32.8829 38.5328 84.3046 0
M  V30 45 H  35.1157 36.6877 81.8950 0
M  V30 46 H  34.9256 38.3703 82.3571 0
M  V30 47 H  35.1959 37.1425 83.5860 0
M  V30 48 H  32.6031 35.6260 81.3081 0
M  V30 END ATOM
M  V30 BEGIN BOND
M  V30 1 1 1 2
M  V30 2 1 1 29
M  V30 3 1 1 30
M  V30 4 1 1 31
M  V30 5 2 2 3
M  V30 6 1 2 4
M  V30 7 1 3 6
M  V30 8 1 3 32
M  V30 9 1 4 5
M  V30 10 1 4 33
M  V30 11 2 5 6
M  V30 12 1 5 7
M  V30 13 1 6 10
M  V30 14 2 7 8
M  V30 15 1 7 34
M  V30 16 1 8 9
M  V30 17 1 8 35
M  V30 18 2 9 10
M  V30 19 1 9 11
M  V30 20 1 10 36
M  V30 21 1 11 12
M  V30 22 1 11 37
M  V30 23 2 12 13
M  V30 24 1 12 17
M  V30 25 1 13 14
M  V30 26 2 14 15
M  V30 27 1 14 18
M  V30 28 1 15 16
M  V30 29 2 16 17
M  V30 30 1 16 38
M  V30 31 1 17 39
M  V30 32 1 18 19
M  V30 33 1 18 40
M  V30 34 2 19 20
M  V30 35 1 19 21
M  V30 36 1 20 24
M  V30 37 1 20 41
M  V30 38 2 21 22
M  V30 39 1 21 42
M  V30 40 1 22 23
M  V30 41 1 22 43
M  V30 42 2 23 24
M  V30 43 1 23 25
M  V30 44 1 24 28
M  V30 45 1 25 26
M  V30 46 1 25 44
M  V30 47 1 26 27
M  V30 48 2 26 28
M  V30 49 1 27 45
M  V30 50 1 27 46
M  V30 51 1 27 47
M  V30 52 1 28 48
M  V30 END BOND
M  V30 END CTAB
M  END
> <s_m_entry_id>
376

> <s_m_entry_name>
result.2677

> <s_m_Source_Path>
D:\OneDrive - zju.edu.cn\DOC\A-Finished\LCK_VS\Planet\LCK-8617

> <s_m_Source_File>
glide-dock_SP_top1262_2_pv.maegz

> <i_m_Source_File_Index>
376

> <PLANET_affinity>
7.46

> <i_lp_mmshare_version>
54117

> <i_f3d_flags>
0

> <s_epik_input>
W0NIM11jKFtuSF0xKVtjSF1jKGMxMilbY0hdYyhbY0hdW2NIXTIpW05IXWMzbmMobltjSF1bY0hdMylbTkhdYyhbY0hdW2NIXTQpW2NIXWMoYzQ1KVtjSF1jKFtuSF01KVtDSDNd

> <s_epik_cmdline>
J2VwaWtfcHl0aG9uJywgJy1waCcsICc3LjAnLCAnLXRuJywgJzgnLCAnLW1hJywgJzUwMCcsICctaW1hZScsICc8aW5maWxlLm1hZT4nLCAnLW9tYWUnLCAnPG91dGZpbGUubWFlPic=

> <r_epik_Ionization_Penalty>
  0.0269

> <r_epik_Ionization_Penalty_Charging>
  0.0000

> <r_epik_Ionization_Penalty_Neutral>
  0.0269

> <r_epik_State_Penalty>
  0.0065

> <r_epik_Charging_Adjusted_Penalty>
0.0064899

> <i_epik_Tot_Q>
0

> <i_epik_Tot_abs_Q>
0

> <s_lp_Force_Field>
S-OPLS

> <r_lp_Energy>
25.6983

> <b_lp_Chiralities_Consistent>
1

> <s_lp_Variant>
CC(N1)=CC2=C1C=CC(NC3=NC(NC4=CC5=C(NC(C)=C5)C=C4)=NC=C3)=C2-1

> <s_i_glide_gridfile>
glide-grid_1

> <i_i_glide_lignum>
1981

> <i_i_glide_rotatable_bonds>
4

> <r_i_docking_score>
-8.22382937891153

> <r_i_glide_ligand_efficiency>
-0.293708192103983

> <r_i_glide_ligand_efficiency_sa>
-0.891871056101862

> <r_i_glide_ligand_efficiency_ln>
-1.89830128277553

> <r_i_glide_gscore>
-8.23032937891153

> <r_i_glide_lipo>
-2.84110424897691

> <r_i_glide_hbond>
-0.503972416830091

> <r_i_glide_metal>
0

> <r_i_glide_rewards>
-2.18748505813068

> <r_i_glide_evdw>
-42.9746017456055

> <r_i_glide_ecoul>
-6.00936508178711

> <r_i_glide_erotb>
0.39747989149469

> <r_i_glide_esite>
-0.0451126969201984

> <r_i_glide_emodel>
-69.6795357321937

> <r_i_glide_energy>
-48.9839668273926

> <r_i_glide_einternal>
6.94561576843262

> <i_i_glide_confnum>
35

> <i_i_glide_posenum>
256

> <r_i_glide_eff_state_penalty>
0.0065

> <r_lp_tautomer_probability>
1

> <s_m_subgroup_title>
glide-dock_SP_top1262_2_pv

> <s_m_subgroupid>
glide-dock_SP_top1262_2_pv

> <b_m_subgroup_collapsed>
0

$$$$
O=C1C(NC2=NN3C(C(NC)=C2)=NC=C3C(N[C@H]4[C@@H](F)C4)=O)=CC=CN1C5=CC=CC=N5
                    3D
 Schrodinger Suite 2021-3.
  0  0  0     0  0            999 V3000
M  V30 BEGIN CTAB
M  V30 COUNTS 51 55 0 0 0
M  V30 BEGIN ATOM
M  V30 1 N  30.3828 42.1551 89.5824 0
M  V30 2 C  30.5944 42.7168 90.7997 0
M  V30 3 C  29.5549 43.1052 91.6437 0
M  V30 4 C  28.2437 42.9222 91.2080 0
M  V30 5 C  28.0075 42.3565 89.9539 0
M  V30 6 C  29.0988 41.9622 89.1545 0
M  V30 7 N  28.8971 41.3692 87.8704 0
M  V30 8 C  29.6854 41.8080 86.8168 0
M  V30 9 C  29.6198 41.3429 85.5571 0
M  V30 10 C  28.6454 40.3027 85.2955 0
M  V30 11 C  27.8664 39.8227 86.3008 0
M  V30 12 C  27.9723 40.3480 87.6843 0
M  V30 13 O  27.2802 39.8856 88.6031 0
M  V30 14 N  26.8712 38.8619 86.1585 0
M  V30 15 C  26.5936 37.9561 85.1284 0
M  V30 16 N  25.3062 37.5452 85.0973 0
M  V30 17 C  27.5781 37.4484 84.2780 0
M  V30 18 C  27.2539 36.4884 83.3110 0
M  V30 19 N  28.2114 35.9374 82.4436 0
M  V30 20 C  29.6307 36.2524 82.5328 0
M  V30 21 C  25.9118 36.0561 83.2435 0
M  V30 22 N  25.0102 36.6256 84.1595 0
M  V30 23 N  25.2876 35.1533 82.4435 0
M  V30 24 C  24.0305 35.1902 82.8233 0
M  V30 25 C  23.7720 36.0745 83.8715 0
M  V30 26 C  22.4809 36.3672 84.4421 0
M  V30 27 O  21.4489 35.9566 83.9162 0
M  V30 28 N  22.4912 37.1268 85.5457 0
M  V30 29 C  21.2780 37.5549 86.2308 0 CFG=1
M  V30 30 C  20.6489 36.6526 87.2777 0 CFG=1
M  V30 31 F  21.2512 35.5045 87.5945 0
M  V30 32 C  21.3671 37.9135 87.6918 0
M  V30 33 H  31.6248 42.8486 91.0961 0
M  V30 34 H  29.7573 43.5454 92.6107 0
M  V30 35 H  27.4168 43.2198 91.8357 0
M  V30 36 H  26.9899 42.2273 89.6141 0
M  V30 37 H  30.3741 42.5989 87.0861 0
M  V30 38 H  30.2533 41.7425 84.7740 0
M  V30 39 H  28.5214 39.9557 84.2803 0
M  V30 40 H  26.1583 38.8340 86.8753 0
M  V30 41 H  28.6015 37.7627 84.3996 0
M  V30 42 H  27.9095 35.2754 81.7369 0
M  V30 43 H  30.1721 35.7541 81.7270 0
M  V30 44 H  29.8043 37.3254 82.4436 0
M  V30 45 H  30.0442 35.9080 83.4812 0
M  V30 46 H  23.2844 34.5825 82.3295 0
M  V30 47 H  23.3312 37.6635 85.7170 0
M  V30 48 H  20.6095 38.1544 85.6068 0
M  V30 49 H  19.5674 36.5603 87.3816 0
M  V30 50 H  20.7886 38.7664 88.0430 0
M  V30 51 H  22.3300 37.8293 88.1959 0
M  V30 END ATOM
M  V30 BEGIN BOND
M  V30 1 2 1 2
M  V30 2 1 1 6
M  V30 3 1 2 3
M  V30 4 1 2 33
M  V30 5 2 3 4
M  V30 6 1 3 34
M  V30 7 1 4 5
M  V30 8 1 4 35
M  V30 9 2 5 6
M  V30 10 1 5 36
M  V30 11 1 6 7
M  V30 12 1 7 8
M  V30 13 1 7 12
M  V30 14 2 8 9
M  V30 15 1 8 37
M  V30 16 1 9 10
M  V30 17 1 9 38
M  V30 18 2 10 11
M  V30 19 1 10 39
M  V30 20 1 11 12
M  V30 21 1 11 14
M  V30 22 2 12 13
M  V30 23 1 14 15
M  V30 24 1 14 40
M  V30 25 2 15 16
M  V30 26 1 15 17
M  V30 27 1 16 22
M  V30 28 2 17 18
M  V30 29 1 17 41
M  V30 30 1 18 19
M  V30 31 1 18 21
M  V30 32 1 19 20
M  V30 33 1 19 42
M  V30 34 1 20 43
M  V30 35 1 20 44
M  V30 36 1 20 45
M  V30 37 1 21 22
M  V30 38 2 21 23
M  V30 39 1 22 25
M  V30 40 1 23 24
M  V30 41 2 24 25
M  V30 42 1 24 46
M  V30 43 1 25 26
M  V30 44 2 26 27
M  V30 45 1 26 28
M  V30 46 1 28 29
M  V30 47 1 28 47
M  V30 48 1 29 30
M  V30 49 1 29 32
M  V30 50 1 29 48
M  V30 51 1 30 31
M  V30 52 1 30 32
M  V30 53 1 30 49
M  V30 54 1 32 50
M  V30 55 1 32 51
M  V30 END BOND
M  V30 END CTAB
M  END
> <s_m_entry_id>
383

> <s_m_entry_name>
result.1964

> <s_m_Source_Path>
D:\OneDrive - zju.edu.cn\DOC\A-Finished\LCK_VS\Planet\LCK-8617

> <s_m_Source_File>
glide-dock_SP_top1262_2_pv.maegz

> <i_m_Source_File_Index>
383

> <PLANET_affinity>
8.518

> <i_lp_mmshare_version>
54117

> <i_f3d_flags>
0

> <s_epik_input>
W2NIXTFbY0hdW2NIXVtjSF1uYzEtbjJbY0hdW2NIXVtjSF1jKGMyPU8pW05IXWMoW2NIXWMzW05IXVtDSDNdKW5uKGMzNCljKFtjSF1uNClDKD1PKVtOSF1bQ0BIXTVbQ0BASF0oRilbQ0gyXTU=

> <s_epik_cmdline>
J2VwaWtfcHl0aG9uJywgJy1waCcsICc3LjAnLCAnLXRuJywgJzgnLCAnLW1hJywgJzUwMCcsICctaW1hZScsICc8aW5maWxlLm1hZT4nLCAnLW9tYWUnLCAnPG91dGZpbGUubWFlPic=

> <r_epik_Ionization_Penalty>
  0.0054

> <r_epik_Ionization_Penalty_Charging>
  0.0000

> <r_epik_Ionization_Penalty_Neutral>
  0.0054

> <r_epik_State_Penalty>
  0.0000

> <r_epik_Charging_Adjusted_Penalty>
4.33946e-06

> <i_epik_Tot_Q>
0

> <i_epik_Tot_abs_Q>
0

> <s_lp_Force_Field>
S-OPLS

> <r_lp_Energy>
72.2866

> <b_lp_Chiralities_Consistent>
1

> <s_lp_Variant>
O=C1C(NC2=NN3C(C(NC)=C2)=NC=C3C(N[C@H]4[C@@H](F)C4)=O)=CC=CN1C5=CC=CC=N5-1

> <s_i_glide_gridfile>
glide-grid_1

> <i_i_glide_lignum>
786

> <i_i_glide_rotatable_bonds>
7

> <r_i_docking_score>
-8.21308664494967

> <r_i_glide_ligand_efficiency>
-0.256658957654677

> <r_i_glide_ligand_efficiency_sa>
-0.814841397814851

> <r_i_glide_ligand_efficiency_ln>
-1.83913398009063

> <r_i_glide_gscore>
-8.21308664494967

> <r_i_glide_lipo>
-2.01995435982217

> <r_i_glide_hbond>
-0.743591682494011

> <r_i_glide_metal>
0

> <r_i_glide_rewards>
-2.79891888108947

> <r_i_glide_evdw>
-41.6149787902832

> <r_i_glide_ecoul>
-6.66386556625366

> <r_i_glide_erotb>
0.443211814681917

> <r_i_glide_esite>
-0.0135047617737306

> <r_i_glide_emodel>
-68.6001067049829

> <r_i_glide_energy>
-48.2788443565369

> <r_i_glide_einternal>
8.71813583374023

> <i_i_glide_confnum>
52

> <i_i_glide_posenum>
186

> <r_i_glide_eff_state_penalty>
0

> <r_lp_tautomer_probability>
1

> <s_m_subgroup_title>
glide-dock_SP_top1262_2_pv

> <s_m_subgroupid>
glide-dock_SP_top1262_2_pv

> <b_m_subgroup_collapsed>
0

$$$$
O=C1N(C)C=NC2=C1C=C(C=C2)NC3=C(C)C=CC(NC(C4=CC(C(C#N)(C)C)=CC=C4)=O)=C3
                    3D
 Schrodinger Suite 2021-3.
  0  0  0     0  0            999 V3000
M  V30 BEGIN CTAB
M  V30 COUNTS 59 62 0 0 0
M  V30 BEGIN ATOM
M  V30 1 N  18.7758 37.0549 87.4476 0
M  V30 2 C  17.7563 37.7030 87.0178 0
M  V30 3 N  17.6828 38.2083 85.7396 0
M  V30 4 C  16.4799 38.9151 85.2985 0
M  V30 5 C  18.6597 38.0838 84.7812 0
M  V30 6 O  18.5633 38.5459 83.6432 0
M  V30 7 C  19.8704 37.3262 85.2724 0
M  V30 8 C  19.8698 36.8619 86.5919 0
M  V30 9 C  20.9754 37.1166 84.4414 0
M  V30 10 C  22.1154 36.4977 84.9579 0
M  V30 11 C  22.1119 36.0378 86.2788 0
M  V30 12 C  20.9830 36.1914 87.0818 0
M  V30 13 N  23.2457 36.3549 84.1447 0
M  V30 14 C  24.5777 36.7141 84.4164 0
M  V30 15 C  25.6076 36.3053 83.5538 0
M  V30 16 C  25.3371 35.3669 82.3848 0
M  V30 17 C  26.9110 36.7568 83.7741 0
M  V30 18 C  27.1974 37.6027 84.8472 0
M  V30 19 C  26.1877 38.0103 85.7218 0
M  V30 20 C  24.8799 37.5542 85.4923 0
M  V30 21 N  26.5618 38.8892 86.7641 0
M  V30 22 C  25.7993 39.4308 87.7447 0
M  V30 23 O  24.6154 39.1571 87.9335 0
M  V30 24 C  26.4743 40.4266 88.6640 0
M  V30 25 C  25.8667 40.7602 89.8858 0
M  V30 26 C  26.4072 41.7212 90.7484 0
M  V30 27 C  25.6719 42.0488 92.0673 0
M  V30 28 C  24.2304 42.2311 91.7912 0
M  V30 29 N  23.0984 42.3697 91.5792 0
M  V30 30 C  25.8313 40.8693 93.0499 0
M  V30 31 C  26.1831 43.3386 92.7541 0
M  V30 32 C  27.6024 42.3527 90.3737 0
M  V30 33 C  28.2292 42.0279 89.1710 0
M  V30 34 C  27.6717 41.0753 88.3184 0
M  V30 35 H  16.9038 37.8776 87.6728 0
M  V30 36 H  16.0832 38.3877 84.4330 0
M  V30 37 H  15.6929 38.9420 86.0492 0
M  V30 38 H  16.6960 39.9448 85.0104 0
M  V30 39 H  20.9738 37.4807 83.4239 0
M  V30 40 H  22.9873 35.5575 86.6866 0
M  V30 41 H  20.9788 35.7968 88.0806 0
M  V30 42 H  23.0601 36.1274 83.1801 0
M  V30 43 H  24.9302 34.4234 82.7506 0
M  V30 44 H  24.5984 35.8007 81.7111 0
M  V30 45 H  26.2392 35.1555 81.8115 0
M  V30 46 H  27.7109 36.4498 83.1164 0
M  V30 47 H  28.2156 37.9306 84.9921 0
M  V30 48 H  24.0638 37.8791 86.1108 0
M  V30 49 H  27.5295 39.1659 86.7568 0
M  V30 50 H  24.9436 40.2740 90.1660 0
M  V30 51 H  25.3868 39.9562 92.6555 0
M  V30 52 H  26.8827 40.6592 93.2436 0
M  V30 53 H  25.3517 41.0726 94.0093 0
M  V30 54 H  26.1433 44.1927 92.0775 0
M  V30 55 H  25.5698 43.5942 93.6187 0
M  V30 56 H  27.2081 43.2368 93.1122 0
M  V30 57 H  28.0669 43.0986 91.0007 0
M  V30 58 H  29.1462 42.5259 88.8899 0
M  V30 59 H  28.1757 40.8722 87.3858 0
M  V30 END ATOM
M  V30 BEGIN BOND
M  V30 1 2 1 2
M  V30 2 1 1 8
M  V30 3 1 2 3
M  V30 4 1 2 35
M  V30 5 1 3 4
M  V30 6 1 3 5
M  V30 7 1 4 36
M  V30 8 1 4 37
M  V30 9 1 4 38
M  V30 10 2 5 6
M  V30 11 1 5 7
M  V30 12 2 7 8
M  V30 13 1 7 9
M  V30 14 1 8 12
M  V30 15 2 9 10
M  V30 16 1 9 39
M  V30 17 1 10 11
M  V30 18 1 10 13
M  V30 19 2 11 12
M  V30 20 1 11 40
M  V30 21 1 12 41
M  V30 22 1 13 14
M  V30 23 1 13 42
M  V30 24 2 14 15
M  V30 25 1 14 20
M  V30 26 1 15 16
M  V30 27 1 15 17
M  V30 28 1 16 43
M  V30 29 1 16 44
M  V30 30 1 16 45
M  V30 31 2 17 18
M  V30 32 1 17 46
M  V30 33 1 18 19
M  V30 34 1 18 47
M  V30 35 2 19 20
M  V30 36 1 19 21
M  V30 37 1 20 48
M  V30 38 1 21 22
M  V30 39 1 21 49
M  V30 40 2 22 23
M  V30 41 1 22 24
M  V30 42 2 24 25
M  V30 43 1 24 34
M  V30 44 1 25 26
M  V30 45 1 25 50
M  V30 46 1 26 27
M  V30 47 2 26 32
M  V30 48 1 27 28
M  V30 49 1 27 30
M  V30 50 1 27 31
M  V30 51 3 28 29
M  V30 52 1 30 51
M  V30 53 1 30 52
M  V30 54 1 30 53
M  V30 55 1 31 54
M  V30 56 1 31 55
M  V30 57 1 31 56
M  V30 58 1 32 33
M  V30 59 1 32 57
M  V30 60 2 33 34
M  V30 61 1 33 58
M  V30 62 1 34 59
M  V30 END BOND
M  V30 END CTAB
M  END
> <s_m_entry_id>
385

> <s_m_entry_name>
result.4520

> <s_m_Source_Path>
D:\OneDrive - zju.edu.cn\DOC\A-Finished\LCK_VS\Planet\LCK-8617

> <s_m_Source_File>
glide-dock_SP_top1262_2_pv.maegz

> <i_m_Source_File_Index>
385

> <PLANET_affinity>
7.363

> <i_lp_mmshare_version>
54117

> <i_f3d_flags>
0

> <s_epik_input>
Tz1jMW4oW0NIM10pW2NIXW5jKGMxMilbY0hdW2NIXWMoW2NIXTIpW05IXWMzYyhbQ0gzXSlbY0hdW2NIXWMoW2NIXTMpW05IXUMoPU8pYzRbY0hdYyhDKEMjTikoW0NIM10pW0NIM10pW2NIXVtjSF1bY0hdNA==

> <s_epik_cmdline>
J2VwaWtfcHl0aG9uJywgJy1waCcsICc3LjAnLCAnLXRuJywgJzgnLCAnLW1hJywgJzUwMCcsICctaW1hZScsICc8aW5maWxlLm1hZT4nLCAnLW9tYWUnLCAnPG91dGZpbGUubWFlPic=

> <r_epik_Ionization_Penalty>
  0.0000

> <r_epik_Ionization_Penalty_Charging>
  0.0000

> <r_epik_Ionization_Penalty_Neutral>
  0.0000

> <r_epik_State_Penalty>
  0.0000

> <r_epik_Charging_Adjusted_Penalty>
4.94537e-09

> <i_epik_Tot_Q>
0

> <i_epik_Tot_abs_Q>
0

> <s_lp_Force_Field>
S-OPLS

> <r_lp_Energy>
63.1254

> <b_lp_Chiralities_Consistent>
1

> <s_lp_Variant>
O=C1N(C)C=NC2=C1C=C(C=C2)NC3=C(C)C=CC(NC(C4=CC(C(C#N)(C)C)=CC=C4)=O)=C3-1

> <s_i_glide_gridfile>
glide-grid_1

> <i_i_glide_lignum>
2151

> <i_i_glide_rotatable_bonds>
6

> <r_i_docking_score>
-8.21027065895188

> <r_i_glide_ligand_efficiency>
-0.241478548792702

> <r_i_glide_ligand_efficiency_sa>
-0.782296755504646

> <r_i_glide_ligand_efficiency_ln>
-1.813879078854

> <r_i_glide_gscore>
-8.21027065895188

> <r_i_glide_lipo>
-4.04065201717456

> <r_i_glide_hbond>
-0.261158196060169

> <r_i_glide_metal>
0

> <r_i_glide_rewards>
-1.48085686040366

> <r_i_glide_evdw>
-51.1710395812988

> <r_i_glide_ecoul>
-3.06240582466125

> <r_i_glide_erotb>
0.590309267450637

> <r_i_glide_esite>
0

> <r_i_glide_emodel>
-75.5342722520397

> <r_i_glide_energy>
-54.2334454059601

> <r_i_glide_einternal>
11.1095209121704

> <i_i_glide_confnum>
46

> <i_i_glide_posenum>
185

> <r_i_glide_eff_state_penalty>
0

> <r_lp_tautomer_probability>
1

> <s_m_subgroup_title>
glide-dock_SP_top1262_2_pv

> <s_m_subgroupid>
glide-dock_SP_top1262_2_pv

> <b_m_subgroup_collapsed>
0

$$$$
O=C(C1=CC=C(NC2CCN(C)CC2)C=C1)NC3=NNC(C4=CC=C(OCO5)C5=C4)=C3
                    3D
 Schrodinger Suite 2021-3.
  0  0  0     0  0            999 V3000
M  V30 BEGIN CTAB
M  V30 COUNTS 57 61 0 0 0
M  V30 BEGIN ATOM
M  V30 1 O  18.1035 37.7156 86.8594 0
M  V30 2 C  17.5356 38.4769 85.8252 0
M  V30 3 O  18.2547 38.2011 84.6485 0
M  V30 4 C  19.3887 37.5704 85.0495 0
M  V30 5 C  19.3020 37.2866 86.3824 0
M  V30 6 C  20.5009 37.2093 84.2936 0
M  V30 7 C  21.5527 36.5484 84.9468 0
M  V30 8 C  21.4606 36.2683 86.3254 0
M  V30 9 C  20.3183 36.6233 87.0586 0
M  V30 10 C  22.7836 36.1741 84.2034 0
M  V30 11 C  24.1085 36.4810 84.4334 0
M  V30 12 N  22.8317 35.3901 83.0770 0
M  V30 13 N  24.0675 35.1920 82.5988 0
M  V30 14 C  24.8451 35.8988 83.3847 0
M  V30 15 N  26.2086 35.9467 83.1859 0
M  V30 16 C  26.9730 37.0299 83.4610 0
M  V30 17 O  26.5172 38.1148 83.8321 0
M  V30 18 C  28.4679 36.8452 83.3208 0
M  V30 19 C  29.0221 35.7928 82.5775 0
M  V30 20 C  30.4013 35.6132 82.5347 0
M  V30 21 C  31.2454 36.4724 83.2445 0
M  V30 22 C  30.7024 37.5444 83.9481 0
M  V30 23 C  29.3251 37.7308 83.9848 0
M  V30 24 N  32.6366 36.3014 83.3223 0
M  V30 25 C  33.2872 35.0439 82.9646 0 CFG=2
M  V30 26 C  32.9568 33.9578 84.0092 0
M  V30 27 C  33.6768 32.6421 83.6719 0
M  V30 28 N  35.1998 32.9088 83.6431 0 CHG=1 CFG=1
M  V30 29 C  35.9573 31.6048 83.3167 0
M  V30 30 C  35.5802 33.9996 82.6097 0
M  V30 31 C  34.8056 35.2920 82.9233 0
M  V30 32 H  16.4811 38.2146 85.7061 0
M  V30 33 H  17.6261 39.5389 86.0720 0
M  V30 34 H  20.5685 37.4562 83.2436 0
M  V30 35 H  22.2716 35.7574 86.8260 0
M  V30 36 H  20.2375 36.3872 88.1062 0
M  V30 37 H  24.5010 37.0850 85.2378 0
M  V30 38 H  22.0317 34.9280 82.6620 0
M  V30 39 H  26.6164 35.2022 82.6433 0
M  V30 40 H  28.4041 35.0881 82.0425 0
M  V30 41 H  30.7919 34.7844 81.9629 0
M  V30 42 H  31.3393 38.2240 84.4971 0
M  V30 43 H  28.9331 38.5546 84.5653 0
M  V30 44 H  33.0454 36.7772 84.1142 0
M  V30 45 H  32.9428 34.7369 81.9729 0
M  V30 46 H  31.8837 33.7698 84.0433 0
M  V30 47 H  33.2367 34.2842 85.0123 0
M  V30 48 H  33.4999 31.8868 84.4396 0
M  V30 49 H  33.3878 32.2479 82.6950 0
M  V30 50 H  35.6953 31.2953 82.3058 0
M  V30 51 H  37.0230 31.8157 83.4081 0
M  V30 52 H  35.6561 30.8518 84.0446 0
M  V30 53 H  36.6580 34.1459 82.6777 0
M  V30 54 H  35.3303 33.6111 81.6185 0
M  V30 55 H  35.1542 35.7007 83.8724 0
M  V30 56 H  35.0380 36.0398 82.1611 0
M  V30 57 H  35.4478 33.2114 84.5853 0
M  V30 END ATOM
M  V30 BEGIN BOND
M  V30 1 1 1 2
M  V30 2 1 1 5
M  V30 3 1 2 3
M  V30 4 1 2 32
M  V30 5 1 2 33
M  V30 6 1 3 4
M  V30 7 2 4 5
M  V30 8 1 4 6
M  V30 9 1 5 9
M  V30 10 2 6 7
M  V30 11 1 6 34
M  V30 12 1 7 8
M  V30 13 1 7 10
M  V30 14 2 8 9
M  V30 15 1 8 35
M  V30 16 1 9 36
M  V30 17 2 10 11
M  V30 18 1 10 12
M  V30 19 1 11 14
M  V30 20 1 11 37
M  V30 21 1 12 13
M  V30 22 1 12 38
M  V30 23 2 13 14
M  V30 24 1 14 15
M  V30 25 1 15 16
M  V30 26 1 15 39
M  V30 27 2 16 17
M  V30 28 1 16 18
M  V30 29 2 18 19
M  V30 30 1 18 23
M  V30 31 1 19 20
M  V30 32 1 19 40
M  V30 33 2 20 21
M  V30 34 1 20 41
M  V30 35 1 21 22
M  V30 36 1 21 24
M  V30 37 2 22 23
M  V30 38 1 22 42
M  V30 39 1 23 43
M  V30 40 1 24 25
M  V30 41 1 24 44
M  V30 42 1 25 26
M  V30 43 1 25 31
M  V30 44 1 25 45
M  V30 45 1 26 27
M  V30 46 1 26 46
M  V30 47 1 26 47
M  V30 48 1 27 28
M  V30 49 1 27 48
M  V30 50 1 27 49
M  V30 51 1 28 29
M  V30 52 1 28 30
M  V30 53 1 28 57
M  V30 54 1 29 50
M  V30 55 1 29 51
M  V30 56 1 29 52
M  V30 57 1 30 31
M  V30 58 1 30 53
M  V30 59 1 30 54
M  V30 60 1 31 55
M  V30 61 1 31 56
M  V30 END BOND
M  V30 END CTAB
M  END
> <s_m_entry_id>
390

> <s_m_entry_name>
result.4614

> <s_m_Source_Path>
D:\OneDrive - zju.edu.cn\DOC\A-Finished\LCK_VS\Planet\LCK-8617

> <s_m_Source_File>
glide-dock_SP_top1262_2_pv.maegz

> <i_m_Source_File_Index>
390

> <PLANET_affinity>
7.665

> <i_lp_mmshare_version>
54117

> <i_f3d_flags>
0

> <s_epik_input>
TzFbQ0gyXU9jKGMxMilbY0hdW2NIXWMoW2NIXTIpLWMzW2NIXWMobltuSF0zKVtOSF1DKD1PKWM0W2NIXVtjSF1jKFtjSF1bY0hdNClbTkhdW0NIXTVbQ0gyXVtDSDJdTihbQ0gzXSlbQ0gyXVtDSDJdNQ==

> <s_epik_cmdline>
J2VwaWtfcHl0aG9uJywgJy1waCcsICc3LjAnLCAnLXRuJywgJzgnLCAnLW1hJywgJzUwMCcsICctaW1hZScsICc8aW5maWxlLm1hZT4nLCAnLW9tYWUnLCAnPG91dGZpbGUubWFlPic=

> <r_epik_Ionization_Penalty>
  0.0005

> <r_epik_Ionization_Penalty_Charging>
  0.0005

> <r_epik_Ionization_Penalty_Neutral>
  0.0000

> <r_epik_State_Penalty>
  0.4107

> <r_epik_Charging_Adjusted_Penalty>
0.411186

> <i_epik_Tot_Q>
1

> <i_epik_Tot_abs_Q>
1

> <s_epik_Chemistry_Notes>
This compound contains an acetal/aminal-like group ( X-CH(R)-Y where X, Y are N, S, or O) that may be acid/base labile, releasing an aldehyde.

> <s_lp_Force_Field>
S-OPLS

> <r_lp_Energy>
60.6524

> <b_lp_Chiralities_Consistent>
1

> <s_lp_Variant>
O=C(C1=CC=C(NC2CCN(C)CC2)C=C1)NC3=NNC(C4=CC=C(OCO5)C5=C4)=C3-1

> <s_i_glide_gridfile>
glide-grid_1

> <i_i_glide_lignum>
1703

> <i_i_glide_rotatable_bonds>
6

> <r_i_docking_score>
-8.20271050502756

> <r_i_glide_ligand_efficiency>
-0.264603564678308

> <r_i_glide_ligand_efficiency_sa>
-0.831220517682765

> <r_i_glide_ligand_efficiency_ln>
-1.84996260177075

> <r_i_glide_gscore>
-8.61341050502756

> <r_i_glide_lipo>
-3.07908098518686

> <r_i_glide_hbond>
-0.283479810401285

> <r_i_glide_metal>
0

> <r_i_glide_rewards>
-2.23410797068591

> <r_i_glide_evdw>
-46.590747833252

> <r_i_glide_ecoul>
-8.54519271850586

> <r_i_glide_erotb>
0.671676305483496

> <r_i_glide_esite>
-0.0771017447985159

> <r_i_glide_emodel>
-85.6461137492455

> <r_i_glide_energy>
-55.1359405517578

> <r_i_glide_einternal>
8.51787376403809

> <i_i_glide_confnum>
7

> <i_i_glide_posenum>
299

> <r_i_glide_eff_state_penalty>
0.4107

> <r_lp_tautomer_probability>
0.5

> <s_m_subgroup_title>
glide-dock_SP_top1262_2_pv

> <s_m_subgroupid>
glide-dock_SP_top1262_2_pv

> <b_m_subgroup_collapsed>
0

$$$$
CC(C)S(C1=C(NC2=NC(NC3=C(OC(C)C)C=C(C4CCN(CC(NCCNC5=C(C(N(C6C(NC(CC6)=O)=O)C7...
                    3D
 Schrodinger Suite 2021-3.
  0  0  0     0  0            999 V3000
M  V30 BEGIN CTAB
M  V30 COUNTS 117 123 0 0 0
M  V30 BEGIN ATOM
M  V30 1 C  29.4607 48.2701 100.7668 0
M  V30 2 C  29.9675 46.9788 101.4329 0
M  V30 3 C  31.4817 46.7676 101.2446 0
M  V30 4 S  29.0005 45.4596 100.8050 0
M  V30 5 O  27.5641 45.7671 100.8534 0
M  V30 6 O  29.5083 44.2839 101.5208 0
M  V30 7 C  29.4928 45.2821 99.0744 0
M  V30 8 C  28.8317 45.9313 98.0121 0
M  V30 9 C  29.3024 45.7417 96.7051 0
M  V30 10 C  30.3926 44.9144 96.4480 0
M  V30 11 C  31.0307 44.2617 97.4955 0
M  V30 12 C  30.5826 44.4453 98.8020 0
M  V30 13 N  27.7167 46.7513 98.2539 0
M  V30 14 C  26.6692 47.1665 97.4202 0
M  V30 15 N  26.3135 46.3567 96.3887 0
M  V30 16 C  25.2294 46.7107 95.6624 0
M  V30 17 N  24.4903 47.8317 95.8589 0
M  V30 18 C  24.8853 48.6530 96.8617 0
M  V30 19 C  25.9736 48.3572 97.6858 0
M  V30 20 Cl 26.3833 49.4166 98.9917 0
M  V30 21 N  24.8519 45.7672 94.7054 0
M  V30 22 C  23.6912 45.6055 93.9327 0
M  V30 23 C  23.3036 44.3015 93.5986 0
M  V30 24 O  24.0834 43.2405 94.0388 0
M  V30 25 C  23.8825 41.9153 93.5314 0
M  V30 26 C  22.9047 41.1612 94.4477 0
M  V30 27 C  25.2478 41.2264 93.4550 0
M  V30 28 C  22.1393 44.1290 92.8431 0
M  V30 29 C  21.4062 45.2045 92.3173 0
M  V30 30 C  21.7867 46.5064 92.7030 0
M  V30 31 C  20.9791 47.7508 92.3568 0
M  V30 32 C  22.9269 46.6904 93.4903 0
M  V30 33 C  20.2021 44.9318 91.3731 0 CFG=2
M  V30 34 C  19.9225 43.4259 91.1047 0
M  V30 35 C  21.0115 42.7764 90.2078 0
M  V30 36 N  20.9600 43.4909 88.8431 0 CHG=1 CFG=1
M  V30 37 C  21.3231 44.9850 89.0280 0
M  V30 38 C  20.2970 45.6246 89.9817 0
M  V30 39 C  21.8768 42.8438 87.7614 0
M  V30 40 C  21.3395 41.4892 87.2475 0
M  V30 41 O  20.4209 40.8953 87.8165 0
M  V30 42 N  21.9545 40.9899 86.1587 0
M  V30 43 C  21.6338 39.7014 85.5392 0
M  V30 44 C  22.2946 38.5031 86.2536 0
M  V30 45 N  23.7485 38.4808 86.1039 0
M  V30 46 C  24.4507 37.7256 85.1443 0
M  V30 47 C  23.8812 36.6424 84.4502 0
M  V30 48 C  24.6361 35.9008 83.5316 0
M  V30 49 C  25.9702 36.2295 83.2859 0
M  V30 50 C  26.5241 37.3115 83.9669 0
M  V30 51 C  25.7903 38.0405 84.8644 0
M  V30 52 C  27.8907 37.8838 83.9134 0
M  V30 53 O  28.8422 37.4763 83.2478 0
M  V30 54 N  27.8717 38.9584 84.7507 0
M  V30 55 C  26.6751 39.1288 85.3760 0
M  V30 56 O  26.3852 39.9998 86.1983 0
M  V30 57 C  29.0255 39.8657 84.9977 0 CFG=2
M  V30 58 C  29.6109 40.4879 83.6913 0
M  V30 59 O  28.9305 41.0651 82.8468 0
M  V30 60 N  30.9322 40.2804 83.4914 0
M  V30 61 C  31.8147 39.4388 84.0753 0
M  V30 62 O  32.9487 39.2880 83.6231 0
M  V30 63 C  31.2825 38.6469 85.2911 0
M  V30 64 C  30.1230 39.3906 85.9775 0
M  V30 65 H  29.9530 49.1468 101.1896 0
M  V30 66 H  29.6450 48.2754 99.6935 0
M  V30 67 H  28.3902 48.3982 100.9249 0
M  V30 68 H  29.7458 47.0249 102.5002 0
M  V30 69 H  32.0502 47.5813 101.6963 0
M  V30 70 H  31.8133 45.8402 101.7126 0
M  V30 71 H  31.7545 46.7225 100.1909 0
M  V30 72 H  28.8329 46.2398 95.8713 0
M  V30 73 H  30.7373 44.7724 95.4330 0
M  V30 74 H  31.8729 43.6150 97.2997 0
M  V30 75 H  31.0959 43.9337 99.6048 0
M  V30 76 H  27.5902 47.0074 99.2239 0
M  V30 77 H  24.2852 49.5358 97.0305 0
M  V30 78 H  25.4682 44.9695 94.6636 0
M  V30 79 H  23.5114 41.9185 92.5066 0
M  V30 80 H  22.7920 40.1210 94.1386 0
M  V30 81 H  23.2538 41.1586 95.4809 0
M  V30 82 H  21.9155 41.6162 94.4328 0
M  V30 83 H  25.1649 40.2270 93.0263 0
M  V30 84 H  25.9433 41.7995 92.8422 0
M  V30 85 H  25.6833 41.1236 94.4429 0
M  V30 86 H  21.8105 43.1262 92.6718 0
M  V30 87 H  20.9843 48.4464 93.1944 0
M  V30 88 H  21.4071 48.2662 91.4978 0
M  V30 89 H  19.9276 47.5344 92.1715 0
M  V30 90 H  23.2180 47.6969 93.7394 0
M  V30 91 H  19.3269 45.3278 91.8866 0
M  V30 92 H  18.9714 43.3510 90.5762 0
M  V30 93 H  19.7461 42.8856 92.0361 0
M  V30 94 H  20.8830 41.7103 90.0602 0
M  V30 95 H  22.0348 42.9123 90.5585 0
M  V30 96 H  22.3444 45.0406 89.4116 0
M  V30 97 H  21.2831 45.4599 88.0445 0
M  V30 98 H  20.4517 46.6983 90.0442 0
M  V30 99 H  19.3265 45.5435 89.4884 0
M  V30 100 H  22.8774 42.7560 88.1916 0
M  V30 101 H  21.9085 43.5577 86.9331 0
M  V30 102 H  22.6872 41.5294 85.7204 0
M  V30 103 H  21.9752 39.7366 84.5017 0
M  V30 104 H  20.5508 39.5553 85.4815 0
M  V30 105 H  21.8553 37.5825 85.8781 0
M  V30 106 H  22.0421 38.5105 87.3129 0
M  V30 107 H  24.2593 39.2495 86.5214 0
M  V30 108 H  22.8598 36.3386 84.6128 0
M  V30 109 H  24.1827 35.0689 83.0162 0
M  V30 110 H  26.5528 35.6549 82.5805 0
M  V30 111 H  28.6014 40.7577 85.4650 0
M  V30 112 H  31.2983 40.7472 82.6757 0
M  V30 113 H  32.1008 38.4736 85.9904 0
M  V30 114 H  30.9623 37.6663 84.9345 0
M  V30 115 H  29.6823 38.7613 86.7470 0
M  V30 116 H  30.5266 40.2519 86.5196 0
M  V30 117 H  20.0126 43.4618 88.4782 0
M  V30 END ATOM
M  V30 BEGIN BOND
M  V30 1 1 1 2
M  V30 2 1 1 65
M  V30 3 1 1 66
M  V30 4 1 1 67
M  V30 5 1 2 3
M  V30 6 1 2 4
M  V30 7 1 2 68
M  V30 8 1 3 69
M  V30 9 1 3 70
M  V30 10 1 3 71
M  V30 11 2 4 5
M  V30 12 2 4 6
M  V30 13 1 4 7
M  V30 14 2 7 8
M  V30 15 1 7 12
M  V30 16 1 8 9
M  V30 17 1 8 13
M  V30 18 2 9 10
M  V30 19 1 9 72
M  V30 20 1 10 11
M  V30 21 1 10 73
M  V30 22 2 11 12
M  V30 23 1 11 74
M  V30 24 1 12 75
M  V30 25 1 13 14
M  V30 26 1 13 76
M  V30 27 2 14 15
M  V30 28 1 14 19
M  V30 29 1 15 16
M  V30 30 2 16 17
M  V30 31 1 16 21
M  V30 32 1 17 18
M  V30 33 2 18 19
M  V30 34 1 18 77
M  V30 35 1 19 20
M  V30 36 1 21 22
M  V30 37 1 21 78
M  V30 38 2 22 23
M  V30 39 1 22 32
M  V30 40 1 23 24
M  V30 41 1 23 28
M  V30 42 1 24 25
M  V30 43 1 25 26
M  V30 44 1 25 27
M  V30 45 1 25 79
M  V30 46 1 26 80
M  V30 47 1 26 81
M  V30 48 1 26 82
M  V30 49 1 27 83
M  V30 50 1 27 84
M  V30 51 1 27 85
M  V30 52 2 28 29
M  V30 53 1 28 86
M  V30 54 1 29 30
M  V30 55 1 29 33
M  V30 56 1 30 31
M  V30 57 2 30 32
M  V30 58 1 31 87
M  V30 59 1 31 88
M  V30 60 1 31 89
M  V30 61 1 32 90
M  V30 62 1 33 34
M  V30 63 1 33 38
M  V30 64 1 33 91
M  V30 65 1 34 35
M  V30 66 1 34 92
M  V30 67 1 34 93
M  V30 68 1 35 36
M  V30 69 1 35 94
M  V30 70 1 35 95
M  V30 71 1 36 37
M  V30 72 1 36 39
M  V30 73 1 36 117
M  V30 74 1 37 38
M  V30 75 1 37 96
M  V30 76 1 37 97
M  V30 77 1 38 98
M  V30 78 1 38 99
M  V30 79 1 39 40
M  V30 80 1 39 100
M  V30 81 1 39 101
M  V30 82 2 40 41
M  V30 83 1 40 42
M  V30 84 1 42 43
M  V30 85 1 42 102
M  V30 86 1 43 44
M  V30 87 1 43 103
M  V30 88 1 43 104
M  V30 89 1 44 45
M  V30 90 1 44 105
M  V30 91 1 44 106
M  V30 92 1 45 46
M  V30 93 1 45 107
M  V30 94 2 46 47
M  V30 95 1 46 51
M  V30 96 1 47 48
M  V30 97 1 47 108
M  V30 98 2 48 49
M  V30 99 1 48 109
M  V30 100 1 49 50
M  V30 101 1 49 110
M  V30 102 2 50 51
M  V30 103 1 50 52
M  V30 104 1 51 55
M  V30 105 2 52 53
M  V30 106 1 52 54
M  V30 107 1 54 55
M  V30 108 1 54 57
M  V30 109 2 55 56
M  V30 110 1 57 58
M  V30 111 1 57 64
M  V30 112 1 57 111
M  V30 113 2 58 59
M  V30 114 1 58 60
M  V30 115 1 60 61
M  V30 116 1 60 112
M  V30 117 2 61 62
M  V30 118 1 61 63
M  V30 119 1 63 64
M  V30 120 1 63 113
M  V30 121 1 63 114
M  V30 122 1 64 115
M  V30 123 1 64 116
M  V30 END BOND
M  V30 END CTAB
M  END
> <s_m_entry_id>
393

> <s_m_entry_name>
result.863

> <s_m_Source_Path>
D:\OneDrive - zju.edu.cn\DOC\A-Finished\LCK_VS\Planet\LCK-8617

> <s_m_Source_File>
glide-dock_SP_top1262_2_pv.maegz

> <i_m_Source_File_Index>
393

> <PLANET_affinity>
14.026

> <i_lp_mmshare_version>
54117

> <i_f3d_flags>
0

> <s_epik_input>
W0NIM11bQ0hdKFtDSDNdKVMoPU8pKD1PKWMxYyhbY0hdW2NIXVtjSF1bY0hdMSlbTkhdYzJuYyhuW2NIXWMyQ2wpW05IXWMzYyhPW0NIXShbQ0gzXSlbQ0gzXSlbY0hdYyhjKFtDSDNdKVtjSF0zKVtDSF00W0NIMl1bQ0gyXU4oW0NIMl1bQ0gyXTQpW0NIMl1DKD1PKVtOSF1bQ0gyXVtDSDJdW05IXWMoW2NIXVtjSF1bY0hdNSljKGM1NilDKD1PKU4oQzY9TylbQ0BASF03Qyg9TylbTkhdQyg9TylbQ0gyXVtDSDJdNw==

> <s_epik_cmdline>
J2VwaWtfcHl0aG9uJywgJy1waCcsICc3LjAnLCAnLXRuJywgJzgnLCAnLW1hJywgJzUwMCcsICctaW1hZScsICc8aW5maWxlLm1hZT4nLCAnLW9tYWUnLCAnPG91dGZpbGUubWFlPic=

> <r_epik_Ionization_Penalty>
  0.0742

> <r_epik_Ionization_Penalty_Charging>
  0.0737

> <r_epik_Ionization_Penalty_Neutral>
  0.0005

> <r_epik_State_Penalty>
  0.0648

> <r_epik_Charging_Adjusted_Penalty>
0.138452

> <i_epik_Tot_Q>
1

> <i_epik_Tot_abs_Q>
1

> <s_lp_Force_Field>
S-OPLS

> <r_lp_Energy>
62.1775

> <b_lp_Chiralities_Consistent>
1

> <s_lp_Variant>
CC(C)S(C1=C(NC2=NC(NC3=C(OC(C)C)C=C(C4CCN(CC(NCCNC5=C(C(N(C6C(NC(CC6)=O)=O)C7...-2

> <s_i_glide_gridfile>
glide-grid_1

> <i_i_glide_lignum>
63

> <i_i_glide_rotatable_bonds>
17

> <r_i_docking_score>
-8.1941864158323

> <r_i_glide_ligand_efficiency>
-0.12803416274738

> <r_i_glide_ligand_efficiency_sa>
-0.512136650279547

> <r_i_glide_ligand_efficiency_ln>
-1.58836443536842

> <r_i_glide_gscore>
-8.2589864158323

> <r_i_glide_lipo>
-2.38030200662612

> <r_i_glide_hbond>
-0.577845342801219

> <r_i_glide_metal>
0

> <r_i_glide_rewards>
-0.585782491731545

> <r_i_glide_evdw>
-55.1385726928711

> <r_i_glide_ecoul>
-12.5364761352539

> <r_i_glide_erotb>
0.176321629170899

> <r_i_glide_esite>
-0.253978148912681

> <r_i_glide_emodel>
-99.9934575220697

> <r_i_glide_energy>
-67.675048828125

> <r_i_glide_einternal>
10.9855327606201

> <i_i_glide_confnum>
451

> <i_i_glide_posenum>
392

> <r_i_glide_eff_state_penalty>
0.0648

> <r_lp_tautomer_probability>
0.99995

> <s_m_subgroup_title>
glide-dock_SP_top1262_2_pv

> <s_m_subgroupid>
glide-dock_SP_top1262_2_pv

> <b_m_subgroup_collapsed>
0

$$$$
C[C@@H](C1=CC=C(F)C=C1)N2N=NC3=C2C4=CC(C5=CC=C6C(N=CO6)=C5)=CC=C4N=C3
                    3D
 Schrodinger Suite 2021-3.
  0  0  0     0  0            999 V3000
M  V30 BEGIN CTAB
M  V30 COUNTS 47 52 0 0 0
M  V30 BEGIN ATOM
M  V30 1 C  23.3757 40.0904 86.3093 0
M  V30 2 C  22.5018 40.9991 85.7178 0
M  V30 3 C  22.9754 41.8844 84.7542 0
M  V30 4 F  22.1198 42.7429 84.1587 0
M  V30 5 C  24.3205 41.8851 84.3942 0
M  V30 6 C  25.1917 40.9616 84.9692 0
M  V30 7 C  24.7200 40.0456 85.9179 0
M  V30 8 C  25.6641 39.0050 86.5354 0 CFG=2
M  V30 9 C  26.5290 39.6283 87.6588 0
M  V30 10 N  26.4614 38.2602 85.5346 0
M  V30 11 N  27.7753 38.5425 85.3620 0
M  V30 12 N  28.2919 37.7588 84.3526 0
M  V30 13 C  26.0917 37.3196 84.5706 0
M  V30 14 C  27.2661 37.0174 83.8564 0
M  V30 15 C  24.8653 36.6911 84.2036 0
M  V30 16 C  24.8965 35.7920 83.0946 0
M  V30 17 N  26.0522 35.4797 82.4454 0
M  V30 18 C  27.2127 36.0746 82.8238 0
M  V30 19 C  23.6856 35.2281 82.6305 0
M  V30 20 C  22.4813 35.5570 83.2432 0
M  V30 21 C  22.4429 36.3953 84.3559 0
M  V30 22 C  23.6299 36.9358 84.8474 0
M  V30 23 C  21.1596 36.7655 84.9915 0
M  V30 24 C  20.9113 36.4076 86.3271 0
M  V30 25 C  19.7412 36.7851 86.9900 0
M  V30 26 C  20.2227 37.5202 84.2666 0
M  V30 27 C  19.0534 37.9350 84.9171 0
M  V30 28 C  18.8405 37.5570 86.2527 0
M  V30 29 N  18.0031 38.6949 84.4816 0
M  V30 30 C  17.2176 38.7474 85.5366 0
M  V30 31 O  17.6460 38.0684 86.6426 0
M  V30 32 H  22.9958 39.4076 87.0553 0
M  V30 33 H  21.4588 41.0189 85.9986 0
M  V30 34 H  24.6769 42.5886 83.6552 0
M  V30 35 H  26.2300 40.9530 84.6699 0
M  V30 36 H  25.0689 38.2437 87.0384 0
M  V30 37 H  25.9039 40.0202 88.4621 0
M  V30 38 H  27.2035 38.8936 88.1017 0
M  V30 39 H  27.1360 40.4556 87.2882 0
M  V30 40 H  28.0948 35.8075 82.2589 0
M  V30 41 H  23.6847 34.5643 81.7784 0
M  V30 42 H  21.5671 35.1379 82.8479 0
M  V30 43 H  23.5802 37.5844 85.6983 0
M  V30 44 H  21.6456 35.8192 86.8609 0
M  V30 45 H  19.5410 36.5032 88.0125 0
M  V30 46 H  20.4127 37.8087 83.2417 0
M  V30 47 H  16.2632 39.2436 85.6467 0
M  V30 END ATOM
M  V30 BEGIN BOND
M  V30 1 2 1 2
M  V30 2 1 1 7
M  V30 3 1 1 32
M  V30 4 1 2 3
M  V30 5 1 2 33
M  V30 6 1 3 4
M  V30 7 2 3 5
M  V30 8 1 5 6
M  V30 9 1 5 34
M  V30 10 2 6 7
M  V30 11 1 6 35
M  V30 12 1 7 8
M  V30 13 1 8 9
M  V30 14 1 8 10
M  V30 15 1 8 36
M  V30 16 1 9 37
M  V30 17 1 9 38
M  V30 18 1 9 39
M  V30 19 1 10 11
M  V30 20 1 10 13
M  V30 21 2 11 12
M  V30 22 1 12 14
M  V30 23 2 13 14
M  V30 24 1 13 15
M  V30 25 1 14 18
M  V30 26 2 15 16
M  V30 27 1 15 22
M  V30 28 1 16 17
M  V30 29 1 16 19
M  V30 30 2 17 18
M  V30 31 1 18 40
M  V30 32 2 19 20
M  V30 33 1 19 41
M  V30 34 1 20 21
M  V30 35 1 20 42
M  V30 36 2 21 22
M  V30 37 1 21 23
M  V30 38 1 22 43
M  V30 39 2 23 24
M  V30 40 1 23 26
M  V30 41 1 24 25
M  V30 42 1 24 44
M  V30 43 2 25 28
M  V30 44 1 25 45
M  V30 45 2 26 27
M  V30 46 1 26 46
M  V30 47 1 27 28
M  V30 48 1 27 29
M  V30 49 1 28 31
M  V30 50 2 29 30
M  V30 51 1 30 31
M  V30 52 1 30 47
M  V30 END BOND
M  V30 END CTAB
M  END
> <s_m_entry_id>
394

> <s_m_entry_name>
result.2446

> <s_m_Source_Path>
D:\OneDrive - zju.edu.cn\DOC\A-Finished\LCK_VS\Planet\LCK-8617

> <s_m_Source_File>
glide-dock_SP_top1262_2_pv.maegz

> <i_m_Source_File_Index>
394

> <PLANET_affinity>
7.334

> <i_lp_mmshare_version>
54117

> <i_f3d_flags>
0

> <s_epik_input>
RmMxW2NIXVtjSF1jKFtjSF1bY0hdMSlbQ0BIXShbQ0gzXSluMm5uYyhjMjMpW2NIXW5jNGMzW2NIXWMoW2NIXVtjSF00KS1jKFtjSF01KVtjSF1bY0hdYyhjNTYpb1tjSF1uNg==

> <s_epik_cmdline>
J2VwaWtfcHl0aG9uJywgJy1waCcsICc3LjAnLCAnLXRuJywgJzgnLCAnLW1hJywgJzUwMCcsICctaW1hZScsICc8aW5maWxlLm1hZT4nLCAnLW9tYWUnLCAnPG91dGZpbGUubWFlPic=

> <r_epik_Ionization_Penalty>
  0.0000

> <r_epik_Ionization_Penalty_Charging>
  0.0000

> <r_epik_Ionization_Penalty_Neutral>
  0.0000

> <r_epik_State_Penalty>
  0.0000

> <r_epik_Charging_Adjusted_Penalty>
0

> <i_epik_Tot_Q>
0

> <i_epik_Tot_abs_Q>
0

> <s_lp_Force_Field>
S-OPLS

> <r_lp_Energy>
42.8836

> <b_lp_Chiralities_Consistent>
1

> <s_lp_Variant>
C[C@@H](C1=CC=C(F)C=C1)N2N=NC3=C2C4=CC(C5=CC=C6C(N=CO6)=C5)=CC=C4N=C3-1

> <s_i_glide_gridfile>
glide-grid_1

> <i_i_glide_lignum>
2192

> <i_i_glide_rotatable_bonds>
3

> <r_i_docking_score>
-8.19394043217488

> <r_i_glide_ligand_efficiency>
-0.264320659102415

> <r_i_glide_ligand_efficiency_sa>
-0.830331803581219

> <r_i_glide_ligand_efficiency_ln>
-1.84798468157202

> <r_i_glide_gscore>
-8.19394043217488

> <r_i_glide_lipo>
-3.60636694697892

> <r_i_glide_hbond>
-0.292859608433764

> <r_i_glide_metal>
0

> <r_i_glide_rewards>
-1.7838975871168

> <r_i_glide_evdw>
-48.7894401550293

> <r_i_glide_ecoul>
-2.41164469718933

> <r_i_glide_erotb>
0.352412728942165

> <r_i_glide_esite>
-0.0620103062576954

> <r_i_glide_emodel>
-75.9911035593305

> <r_i_glide_energy>
-51.2010848522186

> <r_i_glide_einternal>
1.00755488872528

> <i_i_glide_confnum>
5

> <i_i_glide_posenum>
327

> <r_i_glide_eff_state_penalty>
0

> <r_lp_tautomer_probability>
1

> <s_m_subgroup_title>
glide-dock_SP_top1262_2_pv

> <s_m_subgroupid>
glide-dock_SP_top1262_2_pv

> <b_m_subgroup_collapsed>
0

$$$$
O=C1N(C2=CC=CC=C2C)C(CN3N=C(C(C3=NC=N4)=C4N)C5=CC(O)=CC=C5)=NC6=CC=CC(C)=C16
                    3D
 Schrodinger Suite 2021-3.
  0  0  0     0  0            999 V3000
M  V30 BEGIN CTAB
M  V30 COUNTS 60 65 0 0 0
M  V30 BEGIN ATOM
M  V30 1 C  20.3815 36.1777 87.6302 0
M  V30 2 C  19.4660 37.1050 86.8444 0
M  V30 3 C  18.1084 37.1568 87.1766 0
M  V30 4 C  17.2366 37.9566 86.4434 0
M  V30 5 C  17.7032 38.7167 85.3747 0
M  V30 6 C  19.0572 38.6928 85.0448 0
M  V30 7 C  19.9468 37.9005 85.7842 0
M  V30 8 N  21.3300 37.9435 85.4706 0
M  V30 9 C  21.7873 36.9661 84.6054 0
M  V30 10 O  21.0209 36.2093 84.0081 0
M  V30 11 C  23.3052 36.9060 84.4867 0
M  V30 12 C  24.0393 37.8265 85.2421 0
M  V30 13 C  23.9862 35.9819 83.6579 0
M  V30 14 C  23.2826 35.0110 82.7224 0
M  V30 15 C  25.3863 35.9898 83.6501 0
M  V30 16 C  26.1044 36.8963 84.4250 0
M  V30 17 C  25.4300 37.8205 85.2170 0
M  V30 18 C  22.1432 38.8892 86.0834 0
M  V30 19 N  23.4234 38.8192 86.0058 0
M  V30 20 C  21.4760 40.0669 86.8325 0
M  V30 21 N  22.3715 40.9284 87.5985 0
M  V30 22 C  22.9525 42.1237 87.2253 0
M  V30 23 C  23.7435 42.5252 88.3236 0
M  V30 24 N  22.8118 42.7889 86.0715 0
M  V30 25 C  23.5135 43.9529 86.0406 0
M  V30 26 N  24.3005 44.4709 87.0184 0
M  V30 27 C  24.4076 43.7565 88.1665 0
M  V30 28 N  25.1860 44.3094 89.1760 0
M  V30 29 N  22.7576 40.5589 88.8379 0
M  V30 30 C  23.5837 41.4754 89.2935 0
M  V30 31 C  24.2160 41.3229 90.6333 0
M  V30 32 C  23.4429 40.9343 91.7350 0
M  V30 33 C  24.0363 40.7565 92.9837 0
M  V30 34 O  23.2829 40.3369 94.0435 0
M  V30 35 C  25.4020 40.9807 93.1471 0
M  V30 36 C  26.1751 41.3939 92.0620 0
M  V30 37 C  25.5843 41.5633 90.8092 0
M  V30 38 H  19.8545 35.6782 88.4434 0
M  V30 39 H  20.7882 35.4080 86.9740 0
M  V30 40 H  21.2232 36.7331 88.0430 0
M  V30 41 H  17.7196 36.5650 87.9931 0
M  V30 42 H  16.1900 37.9906 86.7109 0
M  V30 43 H  17.0123 39.3265 84.8141 0
M  V30 44 H  19.4186 39.2957 84.2252 0
M  V30 45 H  22.6724 35.5563 82.0036 0
M  V30 46 H  22.6090 34.3566 83.2715 0
M  V30 47 H  23.9747 34.3820 82.1670 0
M  V30 48 H  25.9305 35.2964 83.0265 0
M  V30 49 H  27.1837 36.8920 84.4009 0
M  V30 50 H  25.9813 38.5417 85.8025 0
M  V30 51 H  20.9472 40.6975 86.1172 0
M  V30 52 H  20.7203 39.6991 87.5258 0
M  V30 53 H  23.4255 44.5342 85.1339 0
M  V30 54 H  25.2535 43.8377 90.0665 0
M  V30 55 H  25.6177 45.2042 89.0101 0
M  V30 56 H  22.3861 40.7499 91.6192 0
M  V30 57 H  23.8340 40.1211 94.8060 0
M  V30 58 H  25.8668 40.8310 94.1081 0
M  V30 59 H  27.2326 41.5721 92.1908 0
M  V30 60 H  26.1981 41.8523 89.9670 0
M  V30 END ATOM
M  V30 BEGIN BOND
M  V30 1 1 1 2
M  V30 2 1 1 38
M  V30 3 1 1 39
M  V30 4 1 1 40
M  V30 5 2 2 3
M  V30 6 1 2 7
M  V30 7 1 3 4
M  V30 8 1 3 41
M  V30 9 2 4 5
M  V30 10 1 4 42
M  V30 11 1 5 6
M  V30 12 1 5 43
M  V30 13 2 6 7
M  V30 14 1 6 44
M  V30 15 1 7 8
M  V30 16 1 8 9
M  V30 17 1 8 18
M  V30 18 2 9 10
M  V30 19 1 9 11
M  V30 20 2 11 12
M  V30 21 1 11 13
M  V30 22 1 12 19
M  V30 23 1 12 17
M  V30 24 1 13 14
M  V30 25 2 13 15
M  V30 26 1 14 45
M  V30 27 1 14 46
M  V30 28 1 14 47
M  V30 29 1 15 16
M  V30 30 1 15 48
M  V30 31 2 16 17
M  V30 32 1 16 49
M  V30 33 1 17 50
M  V30 34 2 18 19
M  V30 35 1 18 20
M  V30 36 1 20 21
M  V30 37 1 20 51
M  V30 38 1 20 52
M  V30 39 1 21 22
M  V30 40 1 21 29
M  V30 41 1 22 23
M  V30 42 2 22 24
M  V30 43 1 23 30
M  V30 44 2 23 27
M  V30 45 1 24 25
M  V30 46 2 25 26
M  V30 47 1 25 53
M  V30 48 1 26 27
M  V30 49 1 27 28
M  V30 50 1 28 54
M  V30 51 1 28 55
M  V30 52 2 29 30
M  V30 53 1 30 31
M  V30 54 2 31 32
M  V30 55 1 31 37
M  V30 56 1 32 33
M  V30 57 1 32 56
M  V30 58 1 33 34
M  V30 59 2 33 35
M  V30 60 1 34 57
M  V30 61 1 35 36
M  V30 62 1 35 58
M  V30 63 2 36 37
M  V30 64 1 36 59
M  V30 65 1 37 60
M  V30 END BOND
M  V30 END CTAB
M  END
> <s_m_entry_id>
399

> <s_m_entry_name>
result.6573

> <s_m_Source_Path>
D:\OneDrive - zju.edu.cn\DOC\A-Finished\LCK_VS\Planet\LCK-8617

> <s_m_Source_File>
glide-dock_SP_top1262_2_pv.maegz

> <i_m_Source_File_Index>
399

> <PLANET_affinity>
8.065

> <i_lp_mmshare_version>
54117

> <i_f3d_flags>
0

> <s_epik_input>
W0NIM11jMVtjSF1bY0hdW2NIXVtjSF1jMS1uKGMyPU8pYyhuYyhjMjMpW2NIXVtjSF1bY0hdYzNbQ0gzXSlbQ0gyXW40bmMoYyhjNDUpYyhbTkgyXSluW2NIXW41KS1jNltjSF1jKFtPSF0pW2NIXVtjSF1bY0hdNg==

> <s_epik_cmdline>
J2VwaWtfcHl0aG9uJywgJy1waCcsICc3LjAnLCAnLXRuJywgJzgnLCAnLW1hJywgJzUwMCcsICctaW1hZScsICc8aW5maWxlLm1hZT4nLCAnLW9tYWUnLCAnPG91dGZpbGUubWFlPic=

> <r_epik_Ionization_Penalty>
  0.0019

> <r_epik_Ionization_Penalty_Charging>
  0.0000

> <r_epik_Ionization_Penalty_Neutral>
  0.0019

> <r_epik_State_Penalty>
  0.0000

> <r_epik_Charging_Adjusted_Penalty>
1.09399e-07

> <i_epik_Tot_Q>
0

> <i_epik_Tot_abs_Q>
0

> <s_lp_Force_Field>
S-OPLS

> <r_lp_Energy>
62.6888

> <b_lp_Chiralities_Consistent>
1

> <s_lp_Variant>
O=C1N(C2=CC=CC=C2C)C(CN3N=C(C(C3=NC=N4)=C4N)C5=CC(O)=CC=C5)=NC6=CC=CC(C)=C16-1

> <s_i_glide_gridfile>
glide-grid_1

> <i_i_glide_lignum>
1233

> <i_i_glide_rotatable_bonds>
5

> <r_i_docking_score>
-8.18813158699172

> <r_i_glide_ligand_efficiency>
-0.221300853702479

> <r_i_glide_ligand_efficiency_sa>
-0.737423539607712

> <r_i_glide_ligand_efficiency_ln>
-1.77581378417905

> <r_i_glide_gscore>
-8.18813158699172

> <r_i_glide_lipo>
-4.01635031470393

> <r_i_glide_hbond>
-0.603505068913246

> <r_i_glide_metal>
0

> <r_i_glide_rewards>
-0.515235052211122

> <r_i_glide_evdw>
-49.1220474243164

> <r_i_glide_ecoul>
-5.75340938568115

> <r_i_glide_erotb>
0.339581663125014

> <r_i_glide_esite>
-0.0735090352204448

> <r_i_glide_emodel>
-80.0769208583929

> <r_i_glide_energy>
-54.8754568099976

> <r_i_glide_einternal>
3.13108396530151

> <i_i_glide_confnum>
35

> <i_i_glide_posenum>
192

> <r_i_glide_eff_state_penalty>
0

> <r_lp_tautomer_probability>
1

> <s_m_subgroup_title>
glide-dock_SP_top1262_2_pv

> <s_m_subgroupid>
glide-dock_SP_top1262_2_pv

> <b_m_subgroup_collapsed>
0

$$$$
OC([C@@H](CC(C=CC=C1)=C1OCC2=CC=NC(C3=CC=CC=C3OC)=N2)OC4=C5[C@]([C@]6=C(C)C(C...
                    3D
 Schrodinger Suite 2021-3.
  0  0  0     0  0            999 V3000
M  V30 BEGIN CTAB
M  V30 COUNTS 106 113 0 0 0
M  V30 BEGIN ATOM
M  V30 1 C  27.9558 44.2375 84.6781 0
M  V30 2 C  26.4804 44.6547 84.5571 0
M  V30 3 N  25.6909 44.1541 85.6893 0 CFG=2
M  V30 4 C  24.2711 44.4356 85.4814 0
M  V30 5 C  26.1753 44.7719 86.9287 0
M  V30 6 C  27.6287 44.3219 87.2007 0
M  V30 7 N  28.5332 44.7609 86.0160 0 CHG=1
M  V30 8 C  30.0318 44.3825 86.2063 0
M  V30 9 C  30.3825 42.9038 85.9118 0
M  V30 10 O  29.5304 41.9966 86.6012 0
M  V30 11 C  28.8633 40.9686 85.9515 0
M  V30 12 C  28.9240 40.7056 84.5731 0
M  V30 13 C  28.2136 39.6502 84.0222 0
M  V30 14 C  28.0563 40.1530 86.7535 0
M  V30 15 Cl 27.9249 40.5212 88.4436 0
M  V30 16 C  27.3744 39.0500 86.2117 0
M  V30 17 C  26.6007 38.1315 87.1540 0
M  V30 18 C  27.4764 38.7850 84.8309 0
M  V30 19 C  26.9551 37.5581 84.1517 0
M  V30 20 C  27.7818 36.6354 83.4899 0
M  V30 21 C  29.2852 36.6092 83.3341 0
M  V30 22 C  30.1066 37.1568 84.3291 0
M  V30 23 C  31.4913 37.1717 84.1917 0
M  V30 24 C  32.0772 36.5964 83.0725 0
M  V30 25 F  33.4227 36.5883 82.9466 0
M  V30 26 C  31.2844 36.0190 82.0897 0
M  V30 27 C  29.8963 36.0318 82.2110 0
M  V30 28 S  26.8831 35.2696 82.8435 0
M  V30 29 C  25.3856 35.9303 83.4029 0
M  V30 30 C  25.5748 37.1625 84.0891 0
M  V30 31 N  24.2167 35.3137 83.2066 0
M  V30 32 C  23.1563 35.9504 83.7575 0
M  V30 33 N  23.1737 37.1134 84.4440 0
M  V30 34 C  24.3812 37.7357 84.5770 0
M  V30 35 O  24.4759 38.9681 85.2051 0
M  V30 36 C  23.3382 39.6212 85.8023 0 CFG=1
M  V30 37 C  22.3661 40.1462 84.6841 0
M  V30 38 O  22.7463 41.1543 84.0435 0 CHG=-1
M  V30 39 O  21.2851 39.5596 84.4432 0
M  V30 40 C  22.8040 38.7838 87.0260 0
M  V30 41 C  21.3009 38.6450 87.2459 0
M  V30 42 C  20.7133 37.3742 87.2036 0
M  V30 43 C  19.3392 37.2309 87.3771 0
M  V30 44 C  18.5497 38.3569 87.5961 0
M  V30 45 C  19.1352 39.6222 87.6423 0
M  V30 46 C  20.5165 39.7855 87.4744 0
M  V30 47 O  21.1793 41.0005 87.4604 0
M  V30 48 C  20.5411 42.2360 87.7901 0
M  V30 49 C  20.8829 42.6601 89.2107 0
M  V30 50 C  20.0763 43.5565 89.9190 0
M  V30 51 C  20.4573 43.8441 91.2331 0
M  V30 52 N  21.5623 43.2990 91.8125 0
M  V30 53 C  22.2987 42.4644 91.0281 0
M  V30 54 N  22.0089 42.1219 89.7485 0
M  V30 55 C  23.5523 41.8899 91.5801 0
M  V30 56 C  24.7566 42.1144 90.8960 0
M  V30 57 C  25.9536 41.5761 91.3563 0
M  V30 58 C  25.9590 40.7873 92.5000 0
M  V30 59 C  24.7701 40.5444 93.1825 0
M  V30 60 C  23.5549 41.0955 92.7426 0
M  V30 61 O  22.3433 40.8643 93.3730 0
M  V30 62 C  22.2974 40.0440 94.5350 0
M  V30 63 H  28.5713 44.6552 83.8780 0
M  V30 64 H  28.0343 43.1564 84.6620 0
M  V30 65 H  26.4127 45.7385 84.4697 0
M  V30 66 H  26.0835 44.2281 83.6399 0
M  V30 67 H  23.6715 44.0604 86.3127 0
M  V30 68 H  24.0704 45.5030 85.3741 0
M  V30 69 H  23.9050 43.9367 84.5812 0
M  V30 70 H  25.5414 44.4581 87.7607 0
M  V30 71 H  26.1061 45.8598 86.8784 0
M  V30 72 H  27.6790 43.2418 87.3067 0
M  V30 73 H  28.0342 44.7888 88.0996 0
M  V30 74 H  30.2923 44.6775 87.2237 0
M  V30 75 H  30.5662 45.0424 85.5188 0
M  V30 76 H  31.4015 42.7103 86.2480 0
M  V30 77 H  30.4168 42.7566 84.8435 0
M  V30 78 H  29.5134 41.2855 83.8841 0
M  V30 79 H  28.3015 39.4571 82.9628 0
M  V30 80 H  27.1818 37.9565 88.0576 0
M  V30 81 H  25.6703 38.6005 87.4656 0
M  V30 82 H  26.3857 37.1569 86.7244 0
M  V30 83 H  29.6874 37.5714 85.2315 0
M  V30 84 H  32.1108 37.6033 84.9638 0
M  V30 85 H  31.7571 35.5540 81.2435 0
M  V30 86 H  29.3079 35.5864 81.4214 0
M  V30 87 H  22.1945 35.4745 83.6333 0
M  V30 88 H  23.7563 40.5261 86.2485 0
M  V30 89 H  23.2088 39.2195 87.9403 0
M  V30 90 H  23.2409 37.7869 87.0103 0
M  V30 91 H  21.3165 36.4971 87.0211 0
M  V30 92 H  18.8862 36.2518 87.3354 0
M  V30 93 H  17.4813 38.2572 87.7215 0
M  V30 94 H  18.4828 40.4636 87.7970 0
M  V30 95 H  19.4671 42.2375 87.6434 0
M  V30 96 H  20.9421 42.9925 87.1155 0
M  V30 97 H  19.1969 43.9984 89.4660 0
M  V30 98 H  19.8791 44.5238 91.8418 0
M  V30 99 H  24.7613 42.7138 89.9954 0
M  V30 100 H  26.8732 41.7658 90.8230 0
M  V30 101 H  26.8828 40.3569 92.8537 0
M  V30 102 H  24.8099 39.9019 94.0435 0
M  V30 103 H  21.2671 39.9607 94.8806 0
M  V30 104 H  22.6572 39.0330 94.3318 0
M  V30 105 H  22.8828 40.4813 95.3453 0
M  V30 106 H  28.4718 45.7689 85.9755 0
M  V30 END ATOM
M  V30 BEGIN BOND
M  V30 1 1 1 2
M  V30 2 1 1 7
M  V30 3 1 1 63
M  V30 4 1 1 64
M  V30 5 1 2 3
M  V30 6 1 2 65
M  V30 7 1 2 66
M  V30 8 1 3 4
M  V30 9 1 3 5
M  V30 10 1 4 67
M  V30 11 1 4 68
M  V30 12 1 4 69
M  V30 13 1 5 6
M  V30 14 1 5 70
M  V30 15 1 5 71
M  V30 16 1 6 7
M  V30 17 1 6 72
M  V30 18 1 6 73
M  V30 19 1 7 8
M  V30 20 1 7 106
M  V30 21 1 8 9
M  V30 22 1 8 74
M  V30 23 1 8 75
M  V30 24 1 9 10
M  V30 25 1 9 76
M  V30 26 1 9 77
M  V30 27 1 10 11
M  V30 28 2 11 12
M  V30 29 1 11 14
M  V30 30 1 12 13
M  V30 31 1 12 78
M  V30 32 2 13 18
M  V30 33 1 13 79
M  V30 34 1 14 15
M  V30 35 2 14 16
M  V30 36 1 16 17
M  V30 37 1 16 18
M  V30 38 1 17 80
M  V30 39 1 17 81
M  V30 40 1 17 82
M  V30 41 1 18 19
M  V30 42 2 19 20
M  V30 43 1 19 30
M  V30 44 1 20 21
M  V30 45 1 20 28
M  V30 46 2 21 22
M  V30 47 1 21 27
M  V30 48 1 22 23
M  V30 49 1 22 83
M  V30 50 2 23 24
M  V30 51 1 23 84
M  V30 52 1 24 25
M  V30 53 1 24 26
M  V30 54 2 26 27
M  V30 55 1 26 85
M  V30 56 1 27 86
M  V30 57 1 28 29
M  V30 58 2 29 30
M  V30 59 1 29 31
M  V30 60 1 30 34
M  V30 61 2 31 32
M  V30 62 1 32 33
M  V30 63 1 32 87
M  V30 64 2 33 34
M  V30 65 1 34 35
M  V30 66 1 35 36
M  V30 67 1 36 37
M  V30 68 1 36 40
M  V30 69 1 36 88
M  V30 70 1 37 38
M  V30 71 2 37 39
M  V30 72 1 40 41
M  V30 73 1 40 89
M  V30 74 1 40 90
M  V30 75 2 41 42
M  V30 76 1 41 46
M  V30 77 1 42 43
M  V30 78 1 42 91
M  V30 79 2 43 44
M  V30 80 1 43 92
M  V30 81 1 44 45
M  V30 82 1 44 93
M  V30 83 2 45 46
M  V30 84 1 45 94
M  V30 85 1 46 47
M  V30 86 1 47 48
M  V30 87 1 48 49
M  V30 88 1 48 95
M  V30 89 1 48 96
M  V30 90 2 49 50
M  V30 91 1 49 54
M  V30 92 1 50 51
M  V30 93 1 50 97
M  V30 94 2 51 52
M  V30 95 1 51 98
M  V30 96 1 52 53
M  V30 97 2 53 54
M  V30 98 1 53 55
M  V30 99 2 55 56
M  V30 100 1 55 60
M  V30 101 1 56 57
M  V30 102 1 56 99
M  V30 103 2 57 58
M  V30 104 1 57 100
M  V30 105 1 58 59
M  V30 106 1 58 101
M  V30 107 2 59 60
M  V30 108 1 59 102
M  V30 109 1 60 61
M  V30 110 1 61 62
M  V30 111 1 62 103
M  V30 112 1 62 104
M  V30 113 1 62 105
M  V30 END BOND
M  V30 END CTAB
M  END
> <s_m_entry_id>
402

> <s_m_entry_name>
result.591

> <s_m_Source_Path>
D:\OneDrive - zju.edu.cn\DOC\A-Finished\LCK_VS\Planet\LCK-8617

> <s_m_Source_File>
glide-dock_SP_top1262_2_pv.maegz

> <i_m_Source_File_Index>
402

> <PLANET_affinity>
11.508

> <i_lp_mmshare_version>
54117

> <i_f3d_flags>
0

> <s_epik_input>
W0NIM11OMVtDSDJdW0NIMl1OKFtDSDJdW0NIMl0xKVtDSDJdW0NIMl1PYzJbY0hdW2NIXWMoYyhjMkNsKVtDSDNdKS1jKGMoczMpLWM0W2NIXVtjSF1jKEYpW2NIXVtjSF00KWMoYzM1KWMobltjSF1uNSlPW0NAQEhdKEMoPU8pW09IXSlbQ0gyXWM2W2NIXVtjSF1bY0hdW2NIXWM2T1tDSDJdYzdbY0hdW2NIXW5jKG43KS1jOFtjSF1bY0hdW2NIXVtjSF1jOE9bQ0gzXQ==

> <s_epik_cmdline>
J2VwaWtfcHl0aG9uJywgJy1waCcsICc3LjAnLCAnLXRuJywgJzgnLCAnLW1hJywgJzUwMCcsICctaW1hZScsICc8aW5maWxlLm1hZT4nLCAnLW9tYWUnLCAnPG91dGZpbGUubWFlPic=

> <r_epik_Ionization_Penalty>
  0.1877

> <r_epik_Ionization_Penalty_Charging>
  0.1864

> <r_epik_Ionization_Penalty_Neutral>
  0.0013

> <r_epik_State_Penalty>
  1.1755

> <r_epik_Charging_Adjusted_Penalty>
1.36192

> <i_epik_Tot_Q>
0

> <i_epik_Tot_abs_Q>
2

> <s_lp_Force_Field>
S-OPLS

> <r_lp_Energy>
112.805

> <b_lp_Chiralities_Consistent>
1

> <s_lp_Variant>
OC([C@@H](CC(C=CC=C1)=C1OCC2=CC=NC(C3=CC=CC=C3OC)=N2)OC4=C5[C@]([C@]6=C(C)C(C...-2

> <s_i_glide_gridfile>
glide-grid_1

> <i_i_glide_lignum>
140

> <i_i_glide_rotatable_bonds>
16

> <r_i_docking_score>
-8.18239315818435

> <r_i_glide_ligand_efficiency>
-0.131974083196522

> <r_i_glide_ligand_efficiency_sa>
-0.522339115860189

> <r_i_glide_ligand_efficiency_ln>
-1.59589988162801

> <r_i_glide_gscore>
-9.35789315818435

> <r_i_glide_lipo>
-4.31631041757703

> <r_i_glide_hbond>
0

> <r_i_glide_metal>
0

> <r_i_glide_rewards>
-0.656008644428281

> <r_i_glide_evdw>
-65.0406036376953

> <r_i_glide_ecoul>
-8.60406589508057

> <r_i_glide_erotb>
0.186269483572413

> <r_i_glide_esite>
-0.0292035136045986

> <r_i_glide_emodel>
-114.781153080378

> <r_i_glide_energy>
-73.6446695327759

> <r_i_glide_einternal>
18.6006946563721

> <i_i_glide_confnum>
337

> <i_i_glide_posenum>
132

> <r_i_glide_eff_state_penalty>
1.1755

> <s_m_subgroup_title>
glide-dock_SP_top1262_2_pv

> <s_m_subgroupid>
glide-dock_SP_top1262_2_pv

> <b_m_subgroup_collapsed>
0

$$$$
CC(O)(C)C1=CC(C(C2=C3NC(C(NCC)=O)=C2)=CN(C)C3=O)=C(OC4=C(C)C=C(F)C=C4C)C=C1
                    3D
 Schrodinger Suite 2021-3.
  0  0  0     0  0            999 V3000
M  V30 BEGIN CTAB
M  V30 COUNTS 66 69 0 0 0
M  V30 BEGIN ATOM
M  V30 1 C  20.1188 39.8056 85.3772 0
M  V30 2 C  19.7656 38.6377 86.2911 0
M  V30 3 C  18.4071 38.4508 86.5658 0
M  V30 4 C  17.9680 37.3297 87.2576 0
M  V30 5 F  16.6523 37.1605 87.5096 0
M  V30 6 C  18.8806 36.3569 87.6434 0
M  V30 7 C  20.2399 36.5161 87.3701 0
M  V30 8 C  21.1898 35.3670 87.6801 0
M  V30 9 C  20.7139 37.7041 86.7858 0
M  V30 10 O  22.0951 37.8163 86.6969 0
M  V30 11 C  22.7787 39.0113 86.6017 0
M  V30 12 C  22.4264 40.0984 87.4084 0
M  V30 13 C  23.0257 41.3398 87.2216 0
M  V30 14 C  23.8600 39.1272 85.7015 0
M  V30 15 C  24.4381 40.3929 85.5217 0
M  V30 16 C  24.0087 41.5171 86.2419 0
M  V30 17 C  24.5822 42.9239 85.9755 0
M  V30 18 C  25.4354 43.4079 87.1631 0
M  V30 19 O  25.4324 42.9794 84.8440 0
M  V30 20 C  23.4596 43.9310 85.6430 0
M  V30 21 C  24.3663 37.9769 84.8942 0
M  V30 22 C  23.5502 36.9960 84.4435 0
M  V30 23 N  23.8817 35.9109 83.6665 0
M  V30 24 C  22.8409 34.9781 83.2244 0
M  V30 25 C  25.1566 35.6924 83.1823 0
M  V30 26 O  25.4657 34.7564 82.4435 0
M  V30 27 C  26.0814 36.6995 83.6802 0
M  V30 28 C  25.7754 37.7917 84.5070 0
M  V30 29 N  27.4236 36.7544 83.4120 0
M  V30 30 C  28.0180 37.7968 84.0867 0
M  V30 31 C  26.9881 38.4509 84.7663 0
M  V30 32 C  29.4188 38.1334 84.0439 0
M  V30 33 O  29.8246 39.1919 84.5215 0
M  V30 34 N  30.2167 37.2351 83.4318 0
M  V30 35 C  31.6597 37.3917 83.2527 0
M  V30 36 C  32.0255 38.2817 82.0549 0
M  V30 37 H  21.0150 39.6120 84.7888 0
M  V30 38 H  19.3274 39.9580 84.6441 0
M  V30 39 H  20.2313 40.7340 85.9370 0
M  V30 40 H  17.6735 39.1709 86.2313 0
M  V30 41 H  18.5174 35.4618 88.1271 0
M  V30 42 H  21.4659 34.8466 86.7625 0
M  V30 43 H  22.1059 35.7364 88.1366 0
M  V30 44 H  20.7525 34.6471 88.3740 0
M  V30 45 H  21.6380 39.9947 88.1378 0
M  V30 46 H  22.6921 42.1758 87.8190 0
M  V30 47 H  25.2108 40.5144 84.7779 0
M  V30 48 H  24.8527 43.4547 88.0832 0
M  V30 49 H  26.2810 42.7410 87.3406 0
M  V30 50 H  25.8393 44.4059 86.9872 0
M  V30 51 H  24.9647 43.4468 84.1435 0
M  V30 52 H  22.7604 44.0585 86.4702 0
M  V30 53 H  23.8523 44.9231 85.4136 0
M  V30 54 H  22.8780 43.6052 84.7788 0
M  V30 55 H  22.4805 37.0258 84.5816 0
M  V30 56 H  23.2327 34.0256 82.8639 0
M  V30 57 H  22.1582 34.7575 84.0433 0
M  V30 58 H  22.2565 35.4232 82.4194 0
M  V30 59 H  27.9040 36.0975 82.8127 0
M  V30 60 H  27.1118 39.3254 85.3898 0
M  V30 61 H  29.8337 36.3519 83.1357 0
M  V30 62 H  32.1186 37.7805 84.1648 0
M  V30 63 H  32.0889 36.3997 83.1045 0
M  V30 64 H  33.1074 38.3844 81.9697 0
M  V30 65 H  31.6688 37.8565 81.1160 0
M  V30 66 H  31.6123 39.2858 82.1607 0
M  V30 END ATOM
M  V30 BEGIN BOND
M  V30 1 1 1 2
M  V30 2 1 1 37
M  V30 3 1 1 38
M  V30 4 1 1 39
M  V30 5 2 2 3
M  V30 6 1 2 9
M  V30 7 1 3 4
M  V30 8 1 3 40
M  V30 9 1 4 5
M  V30 10 2 4 6
M  V30 11 1 6 7
M  V30 12 1 6 41
M  V30 13 1 7 8
M  V30 14 2 7 9
M  V30 15 1 8 42
M  V30 16 1 8 43
M  V30 17 1 8 44
M  V30 18 1 9 10
M  V30 19 1 10 11
M  V30 20 2 11 12
M  V30 21 1 11 14
M  V30 22 1 12 13
M  V30 23 1 12 45
M  V30 24 2 13 16
M  V30 25 1 13 46
M  V30 26 2 14 15
M  V30 27 1 14 21
M  V30 28 1 15 16
M  V30 29 1 15 47
M  V30 30 1 16 17
M  V30 31 1 17 18
M  V30 32 1 17 19
M  V30 33 1 17 20
M  V30 34 1 18 48
M  V30 35 1 18 49
M  V30 36 1 18 50
M  V30 37 1 19 51
M  V30 38 1 20 52
M  V30 39 1 20 53
M  V30 40 1 20 54
M  V30 41 2 21 22
M  V30 42 1 21 28
M  V30 43 1 22 23
M  V30 44 1 22 55
M  V30 45 1 23 24
M  V30 46 1 23 25
M  V30 47 1 24 56
M  V30 48 1 24 57
M  V30 49 1 24 58
M  V30 50 2 25 26
M  V30 51 1 25 27
M  V30 52 2 27 28
M  V30 53 1 27 29
M  V30 54 1 28 31
M  V30 55 1 29 30
M  V30 56 1 29 59
M  V30 57 2 30 31
M  V30 58 1 30 32
M  V30 59 1 31 60
M  V30 60 2 32 33
M  V30 61 1 32 34
M  V30 62 1 34 35
M  V30 63 1 34 61
M  V30 64 1 35 36
M  V30 65 1 35 62
M  V30 66 1 35 63
M  V30 67 1 36 64
M  V30 68 1 36 65
M  V30 69 1 36 66
M  V30 END BOND
M  V30 END CTAB
M  END
> <s_m_entry_id>
404

> <s_m_entry_name>
result.2250

> <s_m_Source_Path>
D:\OneDrive - zju.edu.cn\DOC\A-Finished\LCK_VS\Planet\LCK-8617

> <s_m_Source_File>
glide-dock_SP_top1262_2_pv.maegz

> <i_m_Source_File_Index>
404

> <PLANET_affinity>
8.236

> <i_lp_mmshare_version>
54117

> <i_f3d_flags>
0

> <s_epik_input>
W0NIM11jMVtjSF1jKEYpW2NIXWMoW0NIM10pYzFPYzJbY0hdW2NIXWMoQyhbQ0gzXSkoW09IXSlbQ0gzXSlbY0hdYzItYyhbY0hdbihbQ0gzXSljMz1PKWMoYzM0KVtjSF1jKFtuSF00KUMoPU8pW05IXVtDSDJdW0NIM10=

> <s_epik_cmdline>
J2VwaWtfcHl0aG9uJywgJy1waCcsICc3LjAnLCAnLXRuJywgJzgnLCAnLW1hJywgJzUwMCcsICctaW1hZScsICc8aW5maWxlLm1hZT4nLCAnLW9tYWUnLCAnPG91dGZpbGUubWFlPic=

> <r_epik_Ionization_Penalty>
  0.0000

> <r_epik_Ionization_Penalty_Charging>
  0.0000

> <r_epik_Ionization_Penalty_Neutral>
  0.0000

> <r_epik_State_Penalty>
  0.0000

> <r_epik_Charging_Adjusted_Penalty>
2.13834e-08

> <i_epik_Tot_Q>
0

> <i_epik_Tot_abs_Q>
0

> <s_lp_Force_Field>
S-OPLS

> <r_lp_Energy>
52.8149

> <b_lp_Chiralities_Consistent>
1

> <s_lp_Variant>
CC(O)(C)C1=CC(C(C2=C3NC(C(NCC)=O)=C2)=CN(C)C3=O)=C(OC4=C(C)C=C(F)C=C4C)C=C1-1

> <s_i_glide_gridfile>
glide-grid_1

> <i_i_glide_lignum>
1040

> <i_i_glide_rotatable_bonds>
8

> <r_i_docking_score>
-8.1818122888431

> <r_i_glide_ligand_efficiency>
-0.227272563578975

> <r_i_glide_ligand_efficiency_sa>
-0.750437469711151

> <r_i_glide_ligand_efficiency_ln>
-1.78505039440265

> <r_i_glide_gscore>
-8.1818122888431

> <r_i_glide_lipo>
-3.28740724708486

> <r_i_glide_hbond>
-0.4930825043853

> <r_i_glide_metal>
0

> <r_i_glide_rewards>
-1.28445279296965

> <r_i_glide_evdw>
-49.938648223877

> <r_i_glide_ecoul>
-7.50315380096436

> <r_i_glide_erotb>
0.505535736935223

> <r_i_glide_esite>
0

> <r_i_glide_emodel>
-79.9973284170203

> <r_i_glide_energy>
-57.4418020248413

> <r_i_glide_einternal>
5.75434637069702

> <i_i_glide_confnum>
32

> <i_i_glide_posenum>
389

> <r_i_glide_eff_state_penalty>
0

> <r_lp_tautomer_probability>
1

> <s_m_subgroup_title>
glide-dock_SP_top1262_2_pv

> <s_m_subgroupid>
glide-dock_SP_top1262_2_pv

> <b_m_subgroup_collapsed>
0

$$$$
O=C1NC2=C(C=C(NC3=NC=C(C(F)(F)F)C(NCC4=CC=CC(S(=O)(C)=O)=C4)=N3)C=C2)CC1
                    3D
 Schrodinger Suite 2021-3.
  0  0  0     0  0            999 V3000
M  V30 BEGIN CTAB
M  V30 COUNTS 54 57 0 0 0
M  V30 BEGIN ATOM
M  V30 1 O  34.2154 38.0805 85.0781 0
M  V30 2 C  33.0239 37.8977 84.8509 0
M  V30 3 N  32.5928 37.2428 83.7544 0
M  V30 4 C  31.8829 38.3528 85.7975 0
M  V30 5 C  30.5417 38.6419 85.0633 0
M  V30 6 C  30.2137 37.5497 84.0529 0
M  V30 7 C  31.2812 36.9163 83.4069 0
M  V30 8 C  28.9094 37.1572 83.7436 0
M  V30 9 C  28.6580 36.1482 82.8000 0
M  V30 10 C  29.7386 35.5576 82.1425 0
M  V30 11 C  31.0451 35.9356 82.4437 0
M  V30 12 N  27.3693 35.7103 82.4448 0
M  V30 13 C  26.1129 35.8539 83.0427 0
M  V30 14 N  25.0683 35.3474 82.3470 0
M  V30 15 C  23.8331 35.5158 82.8828 0
M  V30 16 C  23.6247 36.1633 84.1084 0
M  V30 17 C  22.2131 36.4220 84.6333 0
M  V30 18 F  22.0408 35.8486 85.8232 0
M  V30 19 F  22.0197 37.7334 84.7644 0
M  V30 20 F  21.2834 35.9584 83.7994 0
M  V30 21 C  24.7747 36.5989 84.7864 0
M  V30 22 N  26.0111 36.4522 84.2498 0
M  V30 23 N  24.6747 37.2155 86.0435 0
M  V30 24 C  25.6775 38.1858 86.4908 0
M  V30 25 C  25.4688 39.5231 85.7869 0
M  V30 26 C  26.5551 40.2300 85.2583 0
M  V30 27 C  26.3463 41.4388 84.5895 0
M  V30 28 C  25.0546 41.9471 84.4431 0
M  V30 29 C  23.9701 41.2527 84.9861 0
M  V30 30 C  24.1837 40.0628 85.6768 0
M  V30 31 S  22.3069 41.8627 84.7740 0
M  V30 32 O  22.1370 42.1107 83.3399 0
M  V30 33 O  21.4030 40.9507 85.4814 0
M  V30 34 C  22.3416 43.4955 85.7017 0
M  V30 35 H  33.3461 36.8871 83.1860 0
M  V30 36 H  31.7479 37.5569 86.5288 0
M  V30 37 H  32.2200 39.2305 86.3476 0
M  V30 38 H  30.6164 39.5992 84.5439 0
M  V30 39 H  29.7368 38.7556 85.7903 0
M  V30 40 H  28.1039 37.6700 84.2389 0
M  V30 41 H  29.5734 34.7885 81.4000 0
M  V30 42 H  31.8640 35.4462 81.9349 0
M  V30 43 H  27.3332 35.2439 81.5414 0
M  V30 44 H  23.0065 35.1365 82.2957 0
M  V30 45 H  23.7388 37.3316 86.4046 0
M  V30 46 H  26.6868 37.8138 86.3051 0
M  V30 47 H  25.5864 38.3249 87.5690 0
M  V30 48 H  27.5576 39.8398 85.3492 0
M  V30 49 H  27.1863 41.9781 84.1748 0
M  V30 50 H  24.8947 42.8721 83.9063 0
M  V30 51 H  23.3412 39.5347 86.0993 0
M  V30 52 H  21.3559 43.9552 85.6434 0
M  V30 53 H  22.5934 43.3054 86.7429 0
M  V30 54 H  23.0792 44.1519 85.2434 0
M  V30 END ATOM
M  V30 BEGIN BOND
M  V30 1 2 1 2
M  V30 2 1 2 3
M  V30 3 1 2 4
M  V30 4 1 3 7
M  V30 5 1 3 35
M  V30 6 1 4 5
M  V30 7 1 4 36
M  V30 8 1 4 37
M  V30 9 1 5 6
M  V30 10 1 5 38
M  V30 11 1 5 39
M  V30 12 2 6 7
M  V30 13 1 6 8
M  V30 14 1 7 11
M  V30 15 2 8 9
M  V30 16 1 8 40
M  V30 17 1 9 10
M  V30 18 1 9 12
M  V30 19 2 10 11
M  V30 20 1 10 41
M  V30 21 1 11 42
M  V30 22 1 12 13
M  V30 23 1 12 43
M  V30 24 2 13 14
M  V30 25 1 13 22
M  V30 26 1 14 15
M  V30 27 2 15 16
M  V30 28 1 15 44
M  V30 29 1 16 17
M  V30 30 1 16 21
M  V30 31 1 17 18
M  V30 32 1 17 19
M  V30 33 1 17 20
M  V30 34 2 21 22
M  V30 35 1 21 23
M  V30 36 1 23 24
M  V30 37 1 23 45
M  V30 38 1 24 25
M  V30 39 1 24 46
M  V30 40 1 24 47
M  V30 41 2 25 26
M  V30 42 1 25 30
M  V30 43 1 26 27
M  V30 44 1 26 48
M  V30 45 2 27 28
M  V30 46 1 27 49
M  V30 47 1 28 29
M  V30 48 1 28 50
M  V30 49 2 29 30
M  V30 50 1 29 31
M  V30 51 1 30 51
M  V30 52 2 31 32
M  V30 53 2 31 33
M  V30 54 1 31 34
M  V30 55 1 34 52
M  V30 56 1 34 53
M  V30 57 1 34 54
M  V30 END BOND
M  V30 END CTAB
M  END
> <s_m_entry_id>
408

> <s_m_entry_name>
result.7696

> <s_m_Source_Path>
D:\OneDrive - zju.edu.cn\DOC\A-Finished\LCK_VS\Planet\LCK-8617

> <s_m_Source_File>
glide-dock_SP_top1262_2_pv.maegz

> <i_m_Source_File_Index>
408

> <PLANET_affinity>
8.672

> <i_lp_mmshare_version>
54117

> <i_f3d_flags>
0

> <s_epik_input>
W0NIMl0xW0NIMl1DKD1PKVtOSF1jKGMxMilbY0hdW2NIXWMoW2NIXTIpW05IXWMzbltjSF1jKEMoRikoRilGKWMobjMpW05IXVtDSDJdYzRbY0hdW2NIXVtjSF1jKFtjSF00KVMoPU8pKD1PKVtDSDNd

> <s_epik_cmdline>
J2VwaWtfcHl0aG9uJywgJy1waCcsICc3LjAnLCAnLXRuJywgJzgnLCAnLW1hJywgJzUwMCcsICctaW1hZScsICc8aW5maWxlLm1hZT4nLCAnLW9tYWUnLCAnPG91dGZpbGUubWFlPic=

> <r_epik_Ionization_Penalty>
  0.0006

> <r_epik_Ionization_Penalty_Charging>
  0.0000

> <r_epik_Ionization_Penalty_Neutral>
  0.0006

> <r_epik_State_Penalty>
  0.0000

> <r_epik_Charging_Adjusted_Penalty>
0

> <i_epik_Tot_Q>
0

> <i_epik_Tot_abs_Q>
0

> <s_lp_Force_Field>
S-OPLS

> <r_lp_Energy>
26.7232

> <b_lp_Chiralities_Consistent>
1

> <s_lp_Variant>
O=C1NC2=C(C=C(NC3=NC=C(C(F)(F)F)C(NCC4=CC=CC(S(=O)(C)=O)=C4)=N3)C=C2)CC1-1

> <s_i_glide_gridfile>
glide-grid_1

> <i_i_glide_lignum>
678

> <i_i_glide_rotatable_bonds>
7

> <r_i_docking_score>
-8.17275426522501

> <r_i_glide_ligand_efficiency>
-0.240375125447794

> <r_i_glide_ligand_efficiency_sa>
-0.778722092218878

> <r_i_glide_ligand_efficiency_ln>
-1.80559065518054

> <r_i_glide_gscore>
-8.17275426522501

> <r_i_glide_lipo>
-2.24574433243562

> <r_i_glide_hbond>
-0.560133677503739

> <r_i_glide_metal>
0

> <r_i_glide_rewards>
-1.92501741917138

> <r_i_glide_evdw>
-43.7660102844238

> <r_i_glide_ecoul>
-10.2233257293701

> <r_i_glide_erotb>
0.294969229230058

> <r_i_glide_esite>
-0.0150286917176181

> <r_i_glide_emodel>
-79.9350711005142

> <r_i_glide_energy>
-53.9893360137939

> <r_i_glide_einternal>
4.0512547492981

> <i_i_glide_confnum>
239

> <i_i_glide_posenum>
283

> <r_i_glide_eff_state_penalty>
0

> <r_lp_tautomer_probability>
1

> <s_m_subgroup_title>
glide-dock_SP_top1262_2_pv

> <s_m_subgroupid>
glide-dock_SP_top1262_2_pv

> <b_m_subgroup_collapsed>
0

$$$$
O=C(O)CC[C@@H](C(O)=O)NC(C1=CC=C(NCC2N(C)C3=C(NC(N)=NC3=O)NC2)C=C1)=O
                    3D
 Schrodinger Suite 2021-3.
  0  0  0     0  0            999 V3000
M  V30 BEGIN CTAB
M  V30 COUNTS 58 60 0 0 0
M  V30 BEGIN ATOM
M  V30 1 O  21.3255 40.1728 88.1605 0
M  V30 2 C  20.5947 41.0158 87.6436 0
M  V30 3 O  20.8829 42.3537 87.6546 0
M  V30 4 C  19.2767 40.6694 86.9368 0
M  V30 5 C  18.7420 39.2279 87.2180 0
M  V30 6 C  18.6273 38.2893 85.9887 0 CFG=1
M  V30 7 C  17.6819 38.7566 84.8494 0
M  V30 8 O  17.9598 38.7565 83.6674 0
M  V30 9 O  16.4830 39.1567 85.3549 0
M  V30 10 N  19.9906 37.9733 85.5655 0
M  V30 11 C  20.3640 37.0383 84.6799 0
M  V30 12 O  19.5637 36.3567 84.0436 0
M  V30 13 C  21.8442 36.8051 84.5389 0
M  V30 14 C  22.7603 37.3769 85.4347 0
M  V30 15 C  24.1068 37.0691 85.3404 0
M  V30 16 C  24.5559 36.2055 84.3484 0
M  V30 17 C  23.6643 35.6516 83.4307 0
M  V30 18 C  22.3126 35.9496 83.5330 0
M  V30 19 N  25.9127 35.9025 84.3791 0
M  V30 20 C  26.6856 35.3883 83.2568 0
M  V30 21 C  27.5170 36.4485 82.4869 0 CFG=1
M  V30 22 N  27.7474 37.7194 83.2435 0
M  V30 23 C  26.6280 38.6669 83.2309 0
M  V30 24 C  28.8830 35.8349 82.0122 0
M  V30 25 N  29.8962 35.9237 83.0598 0
M  V30 26 C  29.9894 37.0398 83.8376 0
M  V30 27 C  28.9502 37.9126 83.9543 0
M  V30 28 N  31.2003 37.1870 84.4434 0
M  V30 29 C  31.3846 38.1947 85.2109 0
M  V30 30 N  32.6013 38.3684 85.8825 0
M  V30 31 N  30.3950 39.1050 85.4023 0
M  V30 32 C  29.1659 39.0669 84.8410 0
M  V30 33 O  28.3745 39.9613 85.1248 0
M  V30 34 H  20.2376 42.9437 87.2435 0
M  V30 35 H  18.5195 41.3932 87.2454 0
M  V30 36 H  19.4280 40.8208 85.8682 0
M  V30 37 H  19.3560 38.7253 87.9657 0
M  V30 38 H  17.7753 39.2573 87.7148 0
M  V30 39 H  18.2000 37.3470 86.3376 0
M  V30 40 H  16.4829 39.3138 86.3062 0
M  V30 41 H  20.7117 38.5253 86.0010 0
M  V30 42 H  22.4530 38.0365 86.2334 0
M  V30 43 H  24.7964 37.4958 86.0538 0
M  V30 44 H  23.9848 34.9641 82.6649 0
M  V30 45 H  21.6336 35.4763 82.8379 0
M  V30 46 H  26.4688 36.4741 85.0002 0
M  V30 47 H  27.3451 34.6192 83.6433 0
M  V30 48 H  26.0644 34.8374 82.5532 0
M  V30 49 H  26.9263 36.6935 81.6041 0
M  V30 50 H  26.9614 39.6508 82.8982 0
M  V30 51 H  26.2042 38.7750 84.2295 0
M  V30 52 H  25.8250 38.3524 82.5639 0
M  V30 53 H  28.7669 34.7947 81.7048 0
M  V30 54 H  29.2644 36.3567 81.1406 0
M  V30 55 H  30.7365 35.3869 82.9127 0
M  V30 56 H  33.3623 37.7767 85.5887 0
M  V30 57 H  32.9152 39.3068 86.0706 0
M  V30 58 H  30.5366 39.8806 86.0254 0
M  V30 END ATOM
M  V30 BEGIN BOND
M  V30 1 2 1 2
M  V30 2 1 2 3
M  V30 3 1 2 4
M  V30 4 1 3 34
M  V30 5 1 4 5
M  V30 6 1 4 35
M  V30 7 1 4 36
M  V30 8 1 5 6
M  V30 9 1 5 37
M  V30 10 1 5 38
M  V30 11 1 6 7
M  V30 12 1 6 10
M  V30 13 1 6 39
M  V30 14 2 7 8
M  V30 15 1 7 9
M  V30 16 1 9 40
M  V30 17 1 10 11
M  V30 18 1 10 41
M  V30 19 2 11 12
M  V30 20 1 11 13
M  V30 21 2 13 14
M  V30 22 1 13 18
M  V30 23 1 14 15
M  V30 24 1 14 42
M  V30 25 2 15 16
M  V30 26 1 15 43
M  V30 27 1 16 17
M  V30 28 1 16 19
M  V30 29 2 17 18
M  V30 30 1 17 44
M  V30 31 1 18 45
M  V30 32 1 19 20
M  V30 33 1 19 46
M  V30 34 1 20 21
M  V30 35 1 20 47
M  V30 36 1 20 48
M  V30 37 1 21 22
M  V30 38 1 21 24
M  V30 39 1 21 49
M  V30 40 1 22 23
M  V30 41 1 22 27
M  V30 42 1 23 50
M  V30 43 1 23 51
M  V30 44 1 23 52
M  V30 45 1 24 53
M  V30 46 1 24 54
M  V30 47 1 24 25
M  V30 48 1 25 26
M  V30 49 1 25 55
M  V30 50 2 26 27
M  V30 51 1 26 28
M  V30 52 1 27 32
M  V30 53 2 28 29
M  V30 54 1 29 30
M  V30 55 1 29 31
M  V30 56 1 30 56
M  V30 57 1 30 57
M  V30 58 1 31 32
M  V30 59 1 31 58
M  V30 60 2 32 33
M  V30 END BOND
M  V30 END CTAB
M  END
> <s_m_entry_id>
409

> <s_m_entry_name>
result.5198

> <s_m_Source_Path>
D:\OneDrive - zju.edu.cn\DOC\A-Finished\LCK_VS\Planet\LCK-8617

> <s_m_Source_File>
glide-dock_SP_top1262_2_pv.maegz

> <i_m_Source_File_Index>
409

> <PLANET_affinity>
7.654

> <i_lp_mmshare_version>
54117

> <i_f3d_flags>
0

> <s_epik_input>
Tz1DKFtPSF0pW0NIMl1bQ0gyXVtDQEBIXShDKD1PKVtPSF0pW05IXUMoPU8pYzFbY0hdW2NIXWMoW2NIXVtjSF0xKVtOSF1bQ0gyXVtDQEhdKFtDSDJdW05IXTIpTihbQ0gzXSljKGMyMyljKD1PKVtuSF1jKG4zKVtOSDJd

> <s_epik_cmdline>
J2VwaWtfcHl0aG9uJywgJy1waCcsICc3LjAnLCAnLXRuJywgJzgnLCAnLW1hJywgJzUwMCcsICctaW1hZScsICc8aW5maWxlLm1hZT4nLCAnLW9tYWUnLCAnPG91dGZpbGUubWFlPic=

> <r_epik_Ionization_Penalty>
  8.4796

> <r_epik_Ionization_Penalty_Charging>
  0.0000

> <r_epik_Ionization_Penalty_Neutral>
  8.4795

> <r_epik_State_Penalty>
  0.0162

> <r_epik_Charging_Adjusted_Penalty>
0.0162255

> <i_epik_Tot_Q>
0

> <i_epik_Tot_abs_Q>
0

> <s_lp_Force_Field>
S-OPLS

> <r_lp_Energy>
19.0379

> <b_lp_Chiralities_Consistent>
1

> <s_lp_Variant>
O=C(O)CC[C@@H](C(O)=O)NC(C1=CC=C(NCC2N(C)C3=C(NC(N)=NC3=O)NC2)C=C1)=O-1

> <s_i_glide_gridfile>
glide-grid_1

> <i_i_glide_lignum>
1723

> <i_i_glide_rotatable_bonds>
12

> <r_i_docking_score>
-8.17255752072475

> <r_i_glide_ligand_efficiency>
-0.24765325820378

> <r_i_glide_ligand_efficiency_sa>
-0.794356326698121

> <r_i_glide_ligand_efficiency_ln>
-1.817534477371

> <r_i_glide_gscore>
-8.18875752072475

> <r_i_glide_lipo>
-2.44151782453972

> <r_i_glide_hbond>
-0.64

> <r_i_glide_metal>
0

> <r_i_glide_rewards>
-1.70876805943667

> <r_i_glide_evdw>
-43.1111450195312

> <r_i_glide_ecoul>
-14.2282619476318

> <r_i_glide_erotb>
0.953139714010932

> <r_i_glide_esite>
-0.0618148076379502

> <r_i_glide_emodel>
-85.5229793455188

> <r_i_glide_energy>
-57.3394069671631

> <r_i_glide_einternal>
12.6500616073608

> <i_i_glide_confnum>
479

> <i_i_glide_posenum>
269

> <r_i_glide_eff_state_penalty>
0.0162

> <r_lp_tautomer_probability>
0.98254

> <s_m_subgroup_title>
glide-dock_SP_top1262_2_pv

> <s_m_subgroupid>
glide-dock_SP_top1262_2_pv

> <b_m_subgroup_collapsed>
0

$$$$
NC(O[C@H]1[C@@H](CO)O[C@@H](NC(N2)=N[C@]([C@@]2([H])[C@H](O)CN3)([H])C3=O)[C@...
                    3D
 Schrodinger Suite 2021-3.
  0  0  0     0  0            999 V3000
M  V30 BEGIN CTAB
M  V30 COUNTS 116 118 0 0 0
M  V30 BEGIN ATOM
M  V30 1 O  24.8063 44.8785 85.6437 0
M  V30 2 C  24.0123 45.4226 86.4065 0
M  V30 3 N  24.2466 46.6316 86.9755 0
M  V30 4 C  23.3408 47.3204 87.9453 0
M  V30 5 C  22.4966 46.3297 88.8345 0 CFG=1
M  V30 6 O  21.1265 46.7151 88.8438 0
M  V30 7 C  22.6832 44.8604 88.3846 0 CFG=2
M  V30 8 C  22.6660 44.8371 86.8751 0 CFG=2
M  V30 9 N  21.6830 43.8344 88.6484 0
M  V30 10 C  21.6246 42.9601 87.6376 0
M  V30 11 N  22.3499 43.4384 86.6089 0 CHG=1
M  V30 12 N  20.9306 41.8195 87.7019 0
M  V30 13 C  20.8726 40.7362 86.7067 0 CFG=2
M  V30 14 O  19.6995 39.9515 86.9455 0
M  V30 15 C  19.4310 38.9962 85.9111 0 CFG=2
M  V30 16 C  18.0487 38.3244 86.0935 0
M  V30 17 O  17.0001 39.1564 85.6437 0
M  V30 18 C  20.5681 37.9458 85.8875 0 CFG=2
M  V30 19 O  20.4569 36.9783 86.9456 0
M  V30 20 C  21.0856 35.7878 86.8434 0
M  V30 21 O  22.0260 35.5567 86.0927 0
M  V30 22 N  20.4844 34.8552 87.6437 0
M  V30 23 C  22.1465 39.8308 86.7522 0 CFG=1
M  V30 24 C  21.9546 38.6317 85.7889 0 CFG=2
M  V30 25 O  22.1839 39.0078 84.4440 0
M  V30 26 N  23.4070 40.5453 86.4847 0
M  V30 27 C  24.6422 40.1104 86.7689 0
M  V30 28 O  24.8713 39.1057 87.4394 0
M  V30 29 C  25.7920 40.9188 86.1435 0
M  V30 30 C  26.9634 40.0833 85.5435 0 CFG=1
M  V30 31 N  27.8582 39.5565 86.6871 0 CHG=1
M  V30 32 C  26.5256 38.8940 84.6293 0
M  V30 33 C  27.6403 38.3533 83.7079 0
M  V30 34 C  27.4416 36.8890 83.2234 0
M  V30 35 N  28.5676 36.3567 82.4436 0
M  V30 36 C  29.8420 36.3236 82.8724 0
M  V30 37 O  30.1594 36.5679 84.0347 0
M  V30 38 C  30.9268 36.0566 81.8141 0
M  V30 39 C  32.2978 36.7876 81.9867 0 CFG=1
M  V30 40 N  32.1002 38.3206 81.9835 0 CHG=1
M  V30 41 C  33.1408 36.3552 83.2213 0
M  V30 42 C  34.5728 36.9440 83.2911 0
M  V30 43 C  35.4368 36.4071 84.4582 0
M  V30 44 N  35.6566 34.9589 84.4435 0
M  V30 45 C  36.3310 34.2929 83.4913 0
M  V30 46 O  36.8568 34.8426 82.5247 0
M  V30 47 C  36.4254 32.7676 83.6422 0
M  V30 48 C  35.3111 31.9134 82.9601 0 CFG=1
M  V30 49 N  33.9484 32.1418 83.6435 0 CHG=1
M  V30 50 C  35.1962 31.9797 81.4047 0
M  V30 51 C  34.4972 33.1946 80.7401 0
M  V30 52 C  34.6508 33.1666 79.2036 0
M  V30 53 N  34.0830 34.4487 78.5801 0 CHG=1
M  V30 54 H  25.1290 47.0645 86.7428 0
M  V30 55 H  23.9443 47.9749 88.5764 0
M  V30 56 H  22.6850 47.9609 87.3498 0
M  V30 57 H  22.8112 46.4305 89.8752 0
M  V30 58 H  20.6851 46.4084 88.0397 0
M  V30 59 H  23.6220 44.4699 88.7873 0
M  V30 60 H  21.8644 45.4413 86.4434 0
M  V30 61 H  21.1004 43.8250 89.4738 0
M  V30 62 H  20.2605 41.7568 88.4500 0
M  V30 63 H  20.7817 41.2196 85.7325 0
M  V30 64 H  19.4136 39.5093 84.9456 0
M  V30 65 H  17.9946 37.4136 85.4959 0
M  V30 66 H  17.8840 38.0295 87.1322 0
M  V30 67 H  16.7649 39.7714 86.3633 0
M  V30 68 H  20.4278 37.3617 84.9735 0
M  V30 69 H  19.6787 35.1146 88.1893 0
M  V30 70 H  20.8212 33.9022 87.6094 0
M  V30 71 H  22.2211 39.4316 87.7681 0
M  V30 72 H  22.7381 37.9023 85.9919 0
M  V30 73 H  22.8968 39.6520 84.4362 0
M  V30 74 H  23.3201 41.4553 86.0569 0
M  V30 75 H  26.1481 41.6283 86.8926 0
M  V30 76 H  25.3890 41.5460 85.3453 0
M  V30 77 H  27.6330 40.7546 84.9974 0
M  V30 78 H  27.3045 38.9719 87.3001 0
M  V30 79 H  28.6286 39.0109 86.3269 0
M  V30 80 H  25.6950 39.2110 83.9973 0
M  V30 81 H  26.1202 38.0813 85.2369 0
M  V30 82 H  28.5867 38.4324 84.2374 0
M  V30 83 H  27.7421 39.0112 82.8441 0
M  V30 84 H  26.5276 36.8221 82.6292 0
M  V30 85 H  27.2507 36.2334 84.0689 0
M  V30 86 H  28.3521 36.0113 81.5139 0
M  V30 87 H  30.5121 36.3412 80.8444 0
M  V30 88 H  31.0828 34.9790 81.7695 0
M  V30 89 H  32.8891 36.6218 81.0828 0
M  V30 90 H  31.5163 38.5898 82.7638 0
M  V30 91 H  32.9884 38.7946 82.0734 0
M  V30 92 H  33.2157 35.2673 83.2077 0
M  V30 93 H  32.6274 36.5951 84.1530 0
M  V30 94 H  34.5240 38.0277 83.3958 0
M  V30 95 H  35.0928 36.7711 82.3483 0
M  V30 96 H  34.9258 36.6183 85.4001 0
M  V30 97 H  36.3934 36.9326 84.5075 0
M  V30 98 H  35.3816 34.4494 85.2856 0
M  V30 99 H  36.4828 32.5309 84.7084 0
M  V30 100 H  37.3960 32.4635 83.2490 0
M  V30 101 H  35.5099 30.8729 83.2313 0
M  V30 102 H  33.6591 33.1049 83.5626 0
M  V30 103 H  33.2318 31.5423 83.2638 0
M  V30 104 H  34.6798 31.0824 81.0580 0
M  V30 105 H  36.2066 31.8875 81.0005 0
M  V30 106 H  34.9017 34.1294 81.1215 0
M  V30 107 H  33.4359 33.1940 80.9922 0
M  V30 108 H  34.0890 32.3566 78.7349 0
M  V30 109 H  35.6922 33.1336 78.8744 0
M  V30 110 H  34.1604 34.4167 77.5715 0
M  V30 111 H  34.5798 35.2622 78.9125 0
M  V30 112 H  33.0997 34.5372 78.8157 0
M  V30 113 H  31.6655 38.6257 81.1234 0
M  V30 114 H  28.2329 40.3208 87.2325 0
M  V30 115 H  34.0553 31.9285 84.6348 0
M  V30 116 H  22.0798 43.2135 85.6621 0
M  V30 END ATOM
M  V30 BEGIN BOND
M  V30 1 2 1 2
M  V30 2 1 2 3
M  V30 3 1 2 8
M  V30 4 1 3 4
M  V30 5 1 3 54
M  V30 6 1 4 5
M  V30 7 1 4 55
M  V30 8 1 4 56
M  V30 9 1 5 6
M  V30 10 1 5 7
M  V30 11 1 5 57
M  V30 12 1 6 58
M  V30 13 1 7 8
M  V30 14 1 7 9
M  V30 15 1 7 59
M  V30 16 1 8 11
M  V30 17 1 8 60
M  V30 18 1 9 10
M  V30 19 1 9 61
M  V30 20 2 10 11
M  V30 21 1 10 12
M  V30 22 1 11 116
M  V30 23 1 12 13
M  V30 24 1 12 62
M  V30 25 1 13 14
M  V30 26 1 13 23
M  V30 27 1 13 63
M  V30 28 1 14 15
M  V30 29 1 15 16
M  V30 30 1 15 18
M  V30 31 1 15 64
M  V30 32 1 16 17
M  V30 33 1 16 65
M  V30 34 1 16 66
M  V30 35 1 17 67
M  V30 36 1 18 19
M  V30 37 1 18 24
M  V30 38 1 18 68
M  V30 39 1 19 20
M  V30 40 2 20 21
M  V30 41 1 20 22
M  V30 42 1 22 69
M  V30 43 1 22 70
M  V30 44 1 23 24
M  V30 45 1 23 26
M  V30 46 1 23 71
M  V30 47 1 24 25
M  V30 48 1 24 72
M  V30 49 1 25 73
M  V30 50 1 26 27
M  V30 51 1 26 74
M  V30 52 2 27 28
M  V30 53 1 27 29
M  V30 54 1 29 30
M  V30 55 1 29 75
M  V30 56 1 29 76
M  V30 57 1 30 31
M  V30 58 1 30 32
M  V30 59 1 30 77
M  V30 60 1 31 78
M  V30 61 1 31 79
M  V30 62 1 31 114
M  V30 63 1 32 33
M  V30 64 1 32 80
M  V30 65 1 32 81
M  V30 66 1 33 34
M  V30 67 1 33 82
M  V30 68 1 33 83
M  V30 69 1 34 35
M  V30 70 1 34 84
M  V30 71 1 34 85
M  V30 72 1 35 36
M  V30 73 1 35 86
M  V30 74 2 36 37
M  V30 75 1 36 38
M  V30 76 1 38 39
M  V30 77 1 38 87
M  V30 78 1 38 88
M  V30 79 1 39 40
M  V30 80 1 39 41
M  V30 81 1 39 89
M  V30 82 1 40 90
M  V30 83 1 40 91
M  V30 84 1 40 113
M  V30 85 1 41 42
M  V30 86 1 41 92
M  V30 87 1 41 93
M  V30 88 1 42 43
M  V30 89 1 42 94
M  V30 90 1 42 95
M  V30 91 1 43 44
M  V30 92 1 43 96
M  V30 93 1 43 97
M  V30 94 1 44 45
M  V30 95 1 44 98
M  V30 96 2 45 46
M  V30 97 1 45 47
M  V30 98 1 47 48
M  V30 99 1 47 99
M  V30 100 1 47 100
M  V30 101 1 48 49
M  V30 102 1 48 50
M  V30 103 1 48 101
M  V30 104 1 49 102
M  V30 105 1 49 103
M  V30 106 1 49 115
M  V30 107 1 50 51
M  V30 108 1 50 104
M  V30 109 1 50 105
M  V30 110 1 51 52
M  V30 111 1 51 106
M  V30 112 1 51 107
M  V30 113 1 52 53
M  V30 114 1 52 108
M  V30 115 1 52 109
M  V30 116 1 53 110
M  V30 117 1 53 111
M  V30 118 1 53 112
M  V30 END BOND
M  V30 END CTAB
M  END
> <s_m_entry_id>
415

> <s_m_entry_name>
result.5980

> <s_m_Source_Path>
D:\OneDrive - zju.edu.cn\DOC\A-Finished\LCK_VS\Planet\LCK-8617

> <s_m_Source_File>
glide-dock_SP_top1262_2_pv.maegz

> <i_m_Source_File_Index>
415

> <PLANET_affinity>
8.905

> <i_lp_mmshare_version>
54117

> <i_f3d_flags>
0

> <s_epik_input>
W09IXVtDQEBIXTFbQ0gyXVtOSF1DKD1PKVtDQEhdKFtDQEBIXTEyKU49QyhbTkhdMilbTkhdW0NAQEhdM09bQ0BIXShbQ0gyXVtPSF0pW0NASF0oT0MoPU8pW05IMl0pW0NAQEhdKFtPSF0pW0NASF0zW05IXUMoPU8pW0NIMl1bQ0BASF0oW05IMl0pW0NIMl1bQ0gyXVtDSDJdW05IXUMoPU8pW0NIMl1bQ0BASF0oW05IMl0pW0NIMl1bQ0gyXVtDSDJdW05IXUMoPU8pW0NIMl1bQ0BASF0oW05IMl0pW0NIMl1bQ0gyXVtDSDJdW05IMl0=

> <s_epik_cmdline>
J2VwaWtfcHl0aG9uJywgJy1waCcsICc3LjAnLCAnLXRuJywgJzgnLCAnLW1hJywgJzUwMCcsICctaW1hZScsICc8aW5maWxlLm1hZT4nLCAnLW9tYWUnLCAnPG91dGZpbGUubWFlPic=

> <r_epik_Ionization_Penalty>
  0.0094

> <r_epik_Ionization_Penalty_Charging>
  0.0094

> <r_epik_Ionization_Penalty_Neutral>
  0.0001

> <r_epik_State_Penalty>
  0.0064

> <r_epik_Charging_Adjusted_Penalty>
0.0157618

> <i_epik_Tot_Q>
5

> <i_epik_Tot_abs_Q>
5

> <s_epik_Chemistry_Notes>
This compound has an ester and may undergo hydrolysis at high or low pH. This compound has an imine and may undergo hydrolysis. This compound contains an acetal/aminal-like group ( X-CH(R)-Y where X, Y are N, S, or O) that may be acid/base labile, releasing an aldehyde.

> <s_lp_Force_Field>
S-OPLS

> <r_lp_Energy>
40.9008

> <b_lp_Chiralities_Consistent>
1

> <s_lp_Variant>
NC(O[C@H]1[C@@H](CO)O[C@@H](NC(N2)=N[C@]([C@@]2([H])[C@H](O)CN3)([H])C3=O)[C@...-1

> <s_i_glide_gridfile>
glide-grid_1

> <i_i_glide_lignum>
550

> <i_i_glide_rotatable_bonds>
29

> <r_i_docking_score>
-8.16296301234306

> <r_i_glide_ligand_efficiency>
-0.154018170044209

> <r_i_glide_ligand_efficiency_sa>
-0.578536257262607

> <r_i_glide_ligand_efficiency_ln>
-1.64235082251119

> <r_i_glide_gscore>
-8.16936301234306

> <r_i_glide_lipo>
-0.971686098797466

> <r_i_glide_hbond>
-0.713107058366907

> <r_i_glide_metal>
0

> <r_i_glide_rewards>
-0.707039002680606

> <r_i_glide_evdw>
-43.022087097168

> <r_i_glide_ecoul>
-25.3136234283447

> <r_i_glide_erotb>
0.695038143073775

> <r_i_glide_esite>
-0.524421126461753

> <r_i_glide_emodel>
-119.866899766024

> <r_i_glide_energy>
-68.3357105255127

> <r_i_glide_einternal>
14.4991235733032

> <i_i_glide_confnum>
845

> <i_i_glide_posenum>
221

> <r_i_glide_eff_state_penalty>
0.0064

> <s_m_subgroup_title>
glide-dock_SP_top1262_2_pv

> <s_m_subgroupid>
glide-dock_SP_top1262_2_pv

> <b_m_subgroup_collapsed>
0

$$$$
O=C(C=C)N(C1)CC[C@@H]1N(N=C2C#CC3=CC(OC)=CC(OC)=C3)C4=C2C(N)=NC=N4
                    3D
 Schrodinger Suite 2021-3.
  0  0  0     0  0            999 V3000
M  V30 BEGIN CTAB
M  V30 COUNTS 53 56 0 0 0
M  V30 BEGIN ATOM
M  V30 1 C  18.5174 35.9541 88.4309 0
M  V30 2 C  19.6296 36.4007 87.8184 0
M  V30 3 C  19.7111 37.7282 87.2397 0
M  V30 4 O  18.7096 38.4389 87.1330 0
M  V30 5 N  20.9297 38.1551 86.8194 0
M  V30 6 C  22.1963 37.4097 86.9086 0
M  V30 7 C  23.2312 38.3825 86.3250 0 CFG=2
M  V30 8 C  22.4200 39.3192 85.4381 0
M  V30 9 C  21.0912 39.4632 86.1702 0
M  V30 10 N  24.3201 37.7306 85.5905 0
M  V30 11 N  25.5891 38.1513 85.8017 0
M  V30 12 C  26.3664 37.5487 84.9351 0
M  V30 13 C  25.5986 36.6815 84.0987 0
M  V30 14 C  24.2705 36.8056 84.5577 0
M  V30 15 C  25.7944 35.8236 83.0050 0
M  V30 16 N  27.0546 35.6622 82.4435 0
M  V30 17 N  24.7571 35.1571 82.4436 0
M  V30 18 C  23.5303 35.3622 82.9902 0
M  V30 19 N  23.2105 36.1682 84.0396 0
M  V30 20 C  27.7969 37.7802 84.8560 0
M  V30 21 C  28.9997 37.8887 84.6799 0
M  V30 22 C  30.4189 37.9418 84.3732 0
M  V30 23 C  30.8613 37.5605 83.1065 0
M  V30 24 C  32.2134 37.6064 82.7779 0
M  V30 25 O  32.5457 37.2226 81.4946 0
M  V30 26 C  33.9118 37.2318 81.0984 0
M  V30 27 C  33.1306 38.0297 83.7530 0
M  V30 28 C  32.7101 38.3977 85.0330 0
M  V30 29 C  31.3398 38.3574 85.3357 0
M  V30 30 O  33.6953 38.7808 85.9218 0
M  V30 31 C  33.3371 39.0745 87.2679 0
M  V30 32 H  18.4857 34.9571 88.8430 0
M  V30 33 H  17.6284 36.5623 88.5315 0
M  V30 34 H  20.4902 35.7538 87.7470 0
M  V30 35 H  22.1439 36.4975 86.3148 0
M  V30 36 H  22.4687 37.1572 87.9340 0
M  V30 37 H  23.6840 38.9445 87.1463 0
M  V30 38 H  22.9018 40.2808 85.2562 0
M  V30 39 H  22.2232 38.8626 84.4656 0
M  V30 40 H  21.1681 40.2426 86.9299 0
M  V30 41 H  20.2873 39.6901 85.4670 0
M  V30 42 H  27.8297 36.1623 82.8522 0
M  V30 43 H  27.1682 35.1564 81.5689 0
M  V30 44 H  22.7124 34.8160 82.5418 0
M  V30 45 H  30.1595 37.2238 82.3571 0
M  V30 46 H  33.9884 36.8831 80.0682 0
M  V30 47 H  34.3324 38.2377 81.1395 0
M  V30 48 H  34.5134 36.5644 81.7178 0
M  V30 49 H  34.1865 38.0720 83.5363 0
M  V30 50 H  30.9838 38.6410 86.3158 0
M  V30 51 H  34.2328 39.3362 87.8304 0
M  V30 52 H  32.8853 38.2092 87.7553 0
M  V30 53 H  32.6509 39.9206 87.3278 0
M  V30 END ATOM
M  V30 BEGIN BOND
M  V30 1 2 1 2
M  V30 2 1 1 32
M  V30 3 1 1 33
M  V30 4 1 2 3
M  V30 5 1 2 34
M  V30 6 2 3 4
M  V30 7 1 3 5
M  V30 8 1 5 6
M  V30 9 1 5 9
M  V30 10 1 6 7
M  V30 11 1 6 35
M  V30 12 1 6 36
M  V30 13 1 7 8
M  V30 14 1 7 10
M  V30 15 1 7 37
M  V30 16 1 8 9
M  V30 17 1 8 38
M  V30 18 1 8 39
M  V30 19 1 9 40
M  V30 20 1 9 41
M  V30 21 1 10 11
M  V30 22 1 10 14
M  V30 23 2 11 12
M  V30 24 1 12 13
M  V30 25 1 12 20
M  V30 26 2 13 14
M  V30 27 1 13 15
M  V30 28 1 14 19
M  V30 29 1 15 16
M  V30 30 2 15 17
M  V30 31 1 16 42
M  V30 32 1 16 43
M  V30 33 1 17 18
M  V30 34 2 18 19
M  V30 35 1 18 44
M  V30 36 3 20 21
M  V30 37 1 21 22
M  V30 38 2 22 23
M  V30 39 1 22 29
M  V30 40 1 23 24
M  V30 41 1 23 45
M  V30 42 1 24 25
M  V30 43 2 24 27
M  V30 44 1 25 26
M  V30 45 1 26 46
M  V30 46 1 26 47
M  V30 47 1 26 48
M  V30 48 1 27 28
M  V30 49 1 27 49
M  V30 50 2 28 29
M  V30 51 1 28 30
M  V30 52 1 29 50
M  V30 53 1 30 31
M  V30 54 1 31 51
M  V30 55 1 31 52
M  V30 56 1 31 53
M  V30 END BOND
M  V30 END CTAB
M  END
> <s_m_entry_id>
416

> <s_m_entry_name>
result.3704

> <s_m_Source_Path>
D:\OneDrive - zju.edu.cn\DOC\A-Finished\LCK_VS\Planet\LCK-8617

> <s_m_Source_File>
glide-dock_SP_top1262_2_pv.maegz

> <i_m_Source_File_Index>
416

> <PLANET_affinity>
7.404

> <i_lp_mmshare_version>
54117

> <i_f3d_flags>
0

> <s_epik_input>
W0NIMl09W0NIXUMoPU8pTjFbQ0gyXVtDQEhdKFtDSDJdW0NIMl0xKW4oYyhjMjMpbltjSF1uYzNbTkgyXSluYzJDI0NjNFtjSF1jKE9bQ0gzXSlbY0hdYyhbY0hdNClPW0NIM10=

> <s_epik_cmdline>
J2VwaWtfcHl0aG9uJywgJy1waCcsICc3LjAnLCAnLXRuJywgJzgnLCAnLW1hJywgJzUwMCcsICctaW1hZScsICc8aW5maWxlLm1hZT4nLCAnLW9tYWUnLCAnPG91dGZpbGUubWFlPic=

> <r_epik_Ionization_Penalty>
  0.0003

> <r_epik_Ionization_Penalty_Charging>
  0.0000

> <r_epik_Ionization_Penalty_Neutral>
  0.0003

> <r_epik_State_Penalty>
  0.0000

> <r_epik_Charging_Adjusted_Penalty>
0

> <i_epik_Tot_Q>
0

> <i_epik_Tot_abs_Q>
0

> <s_lp_Force_Field>
S-OPLS

> <r_lp_Energy>
31.8563

> <b_lp_Chiralities_Consistent>
1

> <s_lp_Variant>
O=C(C=C)N(C1)CC[C@@H]1N(N=C2C#CC3=CC(OC)=CC(OC)=C3)C4=C2C(N)=NC=N4-1

> <s_i_glide_gridfile>
glide-grid_1

> <i_i_glide_lignum>
2093

> <i_i_glide_rotatable_bonds>
7

> <r_i_docking_score>
-8.16066297463807

> <r_i_glide_ligand_efficiency>
-0.26324719273026

> <r_i_glide_ligand_efficiency_sa>
-0.826959637092599

> <r_i_glide_ligand_efficiency_ln>
-1.84047959506587

> <r_i_glide_gscore>
-8.16066297463807

> <r_i_glide_lipo>
-2.41640940303102

> <r_i_glide_hbond>
-0.55748424308719

> <r_i_glide_metal>
0

> <r_i_glide_rewards>
-2.69007792966014

> <r_i_glide_evdw>
-40.2743835449219

> <r_i_glide_ecoul>
-5.85490369796753

> <r_i_glide_erotb>
0.395263333081494

> <r_i_glide_esite>
0

> <r_i_glide_emodel>
-65.6120262689781

> <r_i_glide_energy>
-46.1292872428894

> <r_i_glide_einternal>
7.22853708267212

> <i_i_glide_confnum>
3

> <i_i_glide_posenum>
168

> <r_i_glide_eff_state_penalty>
0

> <r_lp_tautomer_probability>
1

> <s_m_subgroup_title>
glide-dock_SP_top1262_2_pv

> <s_m_subgroupid>
glide-dock_SP_top1262_2_pv

> <b_m_subgroup_collapsed>
0

$$$$
O=C(N1CC2=C(NN=C2NC(C3=CC=C(N4CCN(C)CC4)C=C3)=O)C1)NC5=C(C=CC=C5CC)CC
                    3D
 Schrodinger Suite 2021-3.
  0  0  0     0  0            999 V3000
M  V30 BEGIN CTAB
M  V30 COUNTS 73 77 0 0 0
M  V30 BEGIN ATOM
M  V30 1 C  17.8953 38.2502 83.3821 0
M  V30 2 C  18.7513 38.8259 84.5188 0
M  V30 3 C  18.6825 37.9589 85.7691 0
M  V30 4 C  17.4846 37.9566 86.4880 0
M  V30 5 C  17.3398 37.1654 87.6190 0
M  V30 6 C  18.3934 36.3679 88.0434 0
M  V30 7 C  19.6074 36.3563 87.3546 0
M  V30 8 C  20.7057 35.4619 87.9131 0
M  V30 9 C  21.2277 34.3781 87.0006 0
M  V30 10 C  19.7650 37.1730 86.2108 0
M  V30 11 N  20.9395 37.1606 85.4388 0
M  V30 12 C  22.1861 37.4877 85.8435 0
M  V30 13 O  22.4117 38.1274 86.8737 0
M  V30 14 N  23.1689 37.0719 85.0037 0
M  V30 15 C  24.5662 37.5303 85.1205 0
M  V30 16 C  22.9814 36.1316 83.8799 0
M  V30 17 C  24.3704 35.9520 83.3722 0
M  V30 18 C  25.2697 36.7474 84.0452 0
M  V30 19 N  24.9004 35.2043 82.4433 0
M  V30 20 N  26.1876 35.5637 82.4759 0
M  V30 21 C  26.4950 36.4919 83.4496 0
M  V30 22 N  27.7624 36.9884 83.7217 0
M  V30 23 C  28.9170 36.4672 83.2400 0
M  V30 24 O  28.9508 35.5280 82.4419 0
M  V30 25 C  30.2167 37.0622 83.7361 0
M  V30 26 C  30.2608 38.0626 84.7187 0
M  V30 27 C  31.4829 38.4991 85.2248 0
M  V30 28 C  32.6906 37.9428 84.7775 0
M  V30 29 C  32.6400 36.9905 83.7541 0
M  V30 30 C  31.4245 36.5552 83.2418 0
M  V30 31 N  33.9249 38.3172 85.3132 0
M  V30 32 C  34.0877 39.4326 86.2659 0
M  V30 33 C  33.8811 39.0075 87.7384 0
M  V30 34 N  34.9072 37.9046 88.0829 0 CHG=1
M  V30 35 C  34.7264 37.4385 89.5409 0
M  V30 36 C  34.7166 36.7319 87.0959 0
M  V30 37 C  34.9177 37.2775 85.6627 0
M  V30 38 H  18.0900 38.7567 82.4436 0
M  V30 39 H  18.1023 37.1917 83.2257 0
M  V30 40 H  16.8327 38.3555 83.5990 0
M  V30 41 H  18.4144 39.8219 84.8042 0
M  V30 42 H  19.7774 38.9697 84.1785 0
M  V30 43 H  16.6552 38.5750 86.1722 0
M  V30 44 H  16.4089 37.1788 88.1671 0
M  V30 45 H  18.2543 35.7556 88.9213 0
M  V30 46 H  21.5419 36.0965 88.2053 0
M  V30 47 H  20.3423 34.9178 88.7856 0
M  V30 48 H  22.0897 33.9566 87.5011 0
M  V30 49 H  20.4826 33.6011 86.8438 0
M  V30 50 H  21.5681 34.7476 86.0439 0
M  V30 51 H  20.8409 36.7873 84.5084 0
M  V30 52 H  24.9544 37.3139 86.1165 0
M  V30 53 H  24.6227 38.6084 84.9630 0
M  V30 54 H  22.3212 36.5565 83.1234 0
M  V30 55 H  22.5576 35.1824 84.2081 0
M  V30 56 H  26.8788 35.1655 81.8494 0
M  V30 57 H  27.8141 37.7504 84.3786 0
M  V30 58 H  29.3620 38.4960 85.1334 0
M  V30 59 H  31.4658 39.2479 86.0020 0
M  V30 60 H  33.5445 36.5691 83.3421 0
M  V30 61 H  31.4368 35.7947 82.4717 0
M  V30 62 H  33.4170 40.2531 86.0078 0
M  V30 63 H  35.0891 39.8482 86.1422 0
M  V30 64 H  34.0581 39.8344 88.4286 0
M  V30 65 H  32.8831 38.6021 87.9156 0
M  V30 66 H  33.6827 37.1567 89.6731 0
M  V30 67 H  35.3934 36.5919 89.7121 0
M  V30 68 H  34.9896 38.2790 90.1839 0
M  V30 69 H  35.4608 35.9712 87.3428 0
M  V30 70 H  33.7197 36.3112 87.2514 0
M  V30 71 H  35.9206 37.6962 85.5640 0
M  V30 72 H  34.8988 36.4421 84.9648 0
M  V30 73 H  35.8394 38.2762 87.9520 0
M  V30 END ATOM
M  V30 BEGIN BOND
M  V30 1 1 1 2
M  V30 2 1 1 38
M  V30 3 1 1 39
M  V30 4 1 1 40
M  V30 5 1 2 3
M  V30 6 1 2 41
M  V30 7 1 2 42
M  V30 8 2 3 4
M  V30 9 1 3 10
M  V30 10 1 4 5
M  V30 11 1 4 43
M  V30 12 2 5 6
M  V30 13 1 5 44
M  V30 14 1 6 7
M  V30 15 1 6 45
M  V30 16 1 7 8
M  V30 17 2 7 10
M  V30 18 1 8 9
M  V30 19 1 8 46
M  V30 20 1 8 47
M  V30 21 1 9 48
M  V30 22 1 9 49
M  V30 23 1 9 50
M  V30 24 1 10 11
M  V30 25 1 11 12
M  V30 26 1 11 51
M  V30 27 2 12 13
M  V30 28 1 12 14
M  V30 29 1 14 15
M  V30 30 1 14 16
M  V30 31 1 15 52
M  V30 32 1 15 53
M  V30 33 1 15 18
M  V30 34 1 16 54
M  V30 35 1 16 55
M  V30 36 1 16 17
M  V30 37 2 17 19
M  V30 38 1 17 18
M  V30 39 2 18 21
M  V30 40 1 19 20
M  V30 41 1 20 56
M  V30 42 1 20 21
M  V30 43 1 21 22
M  V30 44 1 22 23
M  V30 45 1 22 57
M  V30 46 2 23 24
M  V30 47 1 23 25
M  V30 48 2 25 26
M  V30 49 1 25 30
M  V30 50 1 26 27
M  V30 51 1 26 58
M  V30 52 2 27 28
M  V30 53 1 27 59
M  V30 54 1 28 29
M  V30 55 1 28 31
M  V30 56 2 29 30
M  V30 57 1 29 60
M  V30 58 1 30 61
M  V30 59 1 31 32
M  V30 60 1 31 37
M  V30 61 1 32 33
M  V30 62 1 32 62
M  V30 63 1 32 63
M  V30 64 1 33 34
M  V30 65 1 33 64
M  V30 66 1 33 65
M  V30 67 1 34 35
M  V30 68 1 34 36
M  V30 69 1 34 73
M  V30 70 1 35 66
M  V30 71 1 35 67
M  V30 72 1 35 68
M  V30 73 1 36 37
M  V30 74 1 36 69
M  V30 75 1 36 70
M  V30 76 1 37 71
M  V30 77 1 37 72
M  V30 END BOND
M  V30 END CTAB
M  END
> <s_m_entry_id>
422

> <s_m_entry_name>
result.4465

> <s_m_Source_Path>
D:\OneDrive - zju.edu.cn\DOC\A-Finished\LCK_VS\Planet\LCK-8617

> <s_m_Source_File>
glide-dock_SP_top1262_2_pv.maegz

> <i_m_Source_File_Index>
422

> <PLANET_affinity>
8.35

> <i_lp_mmshare_version>
54117

> <i_f3d_flags>
0

> <s_epik_input>
W0NIM11bQ0gyXWMxW2NIXVtjSF1bY0hdYyhbQ0gyXVtDSDNdKWMxW05IXUMoPU8pTihbQ0gyXTIpW0NIMl1jKGMyMyljKG5bbkhdMylbTkhdQyg9TyljNFtjSF1bY0hdYyhbY0hdW2NIXTQpTjVbQ0gyXVtDSDJdTihbQ0gzXSlbQ0gyXVtDSDJdNQ==

> <s_epik_cmdline>
J2VwaWtfcHl0aG9uJywgJy1waCcsICc3LjAnLCAnLXRuJywgJzgnLCAnLW1hJywgJzUwMCcsICctaW1hZScsICc8aW5maWxlLm1hZT4nLCAnLW9tYWUnLCAnPG91dGZpbGUubWFlPic=

> <r_epik_Ionization_Penalty>
  0.0648

> <r_epik_Ionization_Penalty_Charging>
  0.0647

> <r_epik_Ionization_Penalty_Neutral>
  0.0000

> <r_epik_State_Penalty>
  0.4671

> <r_epik_Charging_Adjusted_Penalty>
0.53185

> <i_epik_Tot_Q>
1

> <i_epik_Tot_abs_Q>
1

> <s_lp_Force_Field>
S-OPLS

> <r_lp_Energy>
74.051

> <b_lp_Chiralities_Consistent>
1

> <s_lp_Variant>
O=C(N1CC2=C(NN=C2NC(C3=CC=C(N4CCN(C)CC4)C=C3)=O)C1)NC5=C(C=CC=C5CC)CC-2

> <s_i_glide_gridfile>
glide-grid_1

> <i_i_glide_lignum>
915

> <i_i_glide_rotatable_bonds>
9

> <r_i_docking_score>
-8.15146350490685

> <r_i_glide_ligand_efficiency>
-0.220309824456942

> <r_i_glide_ligand_efficiency_sa>
-0.734121210304089

> <r_i_glide_ligand_efficiency_ln>
-1.76786133679665

> <r_i_glide_gscore>
-8.61856350490685

> <r_i_glide_lipo>
-3.79898127775317

> <r_i_glide_hbond>
-0.457591701010895

> <r_i_glide_metal>
0

> <r_i_glide_rewards>
-1.53329087535606

> <r_i_glide_evdw>
-49.1544151306152

> <r_i_glide_ecoul>
-5.11007118225098

> <r_i_glide_erotb>
0.396333884303609

> <r_i_glide_esite>
-0.000802101221928204

> <r_i_glide_emodel>
-85.1927914913033

> <r_i_glide_energy>
-54.2644863128662

> <r_i_glide_einternal>
6.88846254348755

> <i_i_glide_confnum>
102

> <i_i_glide_posenum>
214

> <r_i_glide_eff_state_penalty>
0.4671

> <r_lp_tautomer_probability>
0.5

> <s_m_subgroup_title>
glide-dock_SP_top1262_2_pv

> <s_m_subgroupid>
glide-dock_SP_top1262_2_pv

> <b_m_subgroup_collapsed>
0

$$$$
O=C(C1=CN=C(NC2=CC=C(C)C(NC(C=C)=O)=C2)N=C1NC)NC3=CC(NC(C4=CC(OC)=C(OC)C(OC)=...
                    3D
 Schrodinger Suite 2021-3.
  0  0  0     0  0            999 V3000
M  V30 BEGIN CTAB
M  V30 COUNTS 81 84 0 0 0
M  V30 BEGIN ATOM
M  V30 1 C  21.0770 47.3887 87.6270 0
M  V30 2 O  22.4756 47.6035 87.4562 0
M  V30 3 C  23.2718 46.5821 86.9668 0
M  V30 4 C  22.8471 45.2491 86.8435 0
M  V30 5 C  24.5773 46.9193 86.5827 0
M  V30 6 O  25.0315 48.2061 86.7670 0
M  V30 7 C  24.6617 49.1215 85.7452 0
M  V30 8 C  25.4379 45.9525 86.0438 0
M  V30 9 O  26.6980 46.3684 85.6488 0
M  V30 10 C  27.5610 45.4543 84.9773 0
M  V30 11 C  24.9813 44.6300 85.9225 0
M  V30 12 C  23.6926 44.2530 86.3257 0
M  V30 13 C  23.2634 42.7990 86.2057 0
M  V30 14 O  24.1086 41.9269 85.9848 0
M  V30 15 N  21.9449 42.5343 86.3678 0
M  V30 16 C  21.2829 41.2936 86.2407 0
M  V30 17 C  20.0672 41.1427 86.9060 0
M  V30 18 C  19.3174 39.9733 86.7598 0
M  V30 19 C  19.7701 38.9214 85.9555 0
M  V30 20 C  18.8474 37.7255 85.7548 0
M  V30 21 C  21.7431 40.2424 85.4352 0
M  V30 22 C  21.0175 39.0508 85.3102 0
M  V30 23 N  21.6327 38.0867 84.4994 0
M  V30 24 C  21.9583 36.8282 84.8569 0
M  V30 25 O  21.3003 36.0725 85.5706 0
M  V30 26 C  23.3331 36.4512 84.3913 0
M  V30 27 C  23.5225 35.5570 83.3288 0
M  V30 28 N  24.7513 35.3058 82.8004 0
M  V30 29 C  25.8014 35.9510 83.3679 0
M  V30 30 N  25.7161 36.7650 84.4451 0
M  V30 31 C  24.4890 37.0304 84.9541 0
M  V30 32 N  24.4092 37.9224 86.0424 0
M  V30 33 C  25.5731 38.6358 86.5552 0
M  V30 34 N  27.0516 35.7554 82.7665 0
M  V30 35 C  28.3118 36.3536 82.9680 0
M  V30 36 C  28.4975 37.5703 83.6387 0
M  V30 37 C  29.7710 38.1182 83.7749 0
M  V30 38 C  30.8881 37.4638 83.2524 0
M  V30 39 C  32.2434 38.1546 83.3627 0
M  V30 40 C  30.7127 36.2300 82.5941 0
M  V30 41 C  29.4270 35.6989 82.4424 0
M  V30 42 N  31.7673 35.4897 82.0437 0
M  V30 43 C  32.8171 34.9942 82.7365 0
M  V30 44 O  32.9742 35.1566 83.9450 0
M  V30 45 C  33.7893 34.2618 81.9609 0
M  V30 46 C  33.5040 33.5586 80.8470 0
M  V30 47 H  20.6164 48.3029 88.0004 0
M  V30 48 H  20.5975 47.1564 86.6749 0
M  V30 49 H  20.8639 46.5986 88.3475 0
M  V30 50 H  21.8451 44.9930 87.1511 0
M  V30 51 H  24.8806 50.1350 86.0772 0
M  V30 52 H  25.2446 48.9428 84.8439 0
M  V30 53 H  23.5991 49.0748 85.4948 0
M  V30 54 H  28.4786 45.9678 84.6911 0
M  V30 55 H  27.8392 44.6186 85.6209 0
M  V30 56 H  27.1060 45.0669 84.0635 0
M  V30 57 H  25.6360 43.8769 85.5083 0
M  V30 58 H  21.3501 43.3215 86.5912 0
M  V30 59 H  19.6677 41.9515 87.5040 0
M  V30 60 H  18.3579 39.9048 87.2509 0
M  V30 61 H  17.7989 38.0205 85.8418 0
M  V30 62 H  18.9643 37.3039 84.7568 0
M  V30 63 H  19.0458 36.9530 86.4975 0
M  V30 64 H  22.6690 40.3481 84.8908 0
M  V30 65 H  22.2807 38.4905 83.8431 0
M  V30 66 H  22.6882 35.0586 82.8512 0
M  V30 67 H  23.4968 38.1715 86.4002 0
M  V30 68 H  25.2943 39.2418 87.4169 0
M  V30 69 H  26.3529 37.9400 86.8687 0
M  V30 70 H  25.9843 39.3009 85.7953 0
M  V30 71 H  27.0172 35.1561 81.9540 0
M  V30 72 H  27.6700 38.1357 84.0321 0
M  V30 73 H  29.8826 39.0674 84.2760 0
M  V30 74 H  32.1375 39.2272 83.5365 0
M  V30 75 H  32.8318 37.7270 84.1764 0
M  V30 76 H  32.8057 38.0437 82.4347 0
M  V30 77 H  29.2999 34.7601 81.9197 0
M  V30 78 H  31.6373 35.1617 81.0932 0
M  V30 79 H  34.7935 34.2862 82.3582 0
M  V30 80 H  32.5052 33.5003 80.4433 0
M  V30 81 H  34.2739 33.0171 80.3173 0
M  V30 END ATOM
M  V30 BEGIN BOND
M  V30 1 1 1 2
M  V30 2 1 1 47
M  V30 3 1 1 48
M  V30 4 1 1 49
M  V30 5 1 2 3
M  V30 6 2 3 4
M  V30 7 1 3 5
M  V30 8 1 4 12
M  V30 9 1 4 50
M  V30 10 1 5 6
M  V30 11 2 5 8
M  V30 12 1 6 7
M  V30 13 1 7 51
M  V30 14 1 7 52
M  V30 15 1 7 53
M  V30 16 1 8 9
M  V30 17 1 8 11
M  V30 18 1 9 10
M  V30 19 1 10 54
M  V30 20 1 10 55
M  V30 21 1 10 56
M  V30 22 2 11 12
M  V30 23 1 11 57
M  V30 24 1 12 13
M  V30 25 2 13 14
M  V30 26 1 13 15
M  V30 27 1 15 16
M  V30 28 1 15 58
M  V30 29 2 16 17
M  V30 30 1 16 21
M  V30 31 1 17 18
M  V30 32 1 17 59
M  V30 33 2 18 19
M  V30 34 1 18 60
M  V30 35 1 19 20
M  V30 36 1 19 22
M  V30 37 1 20 61
M  V30 38 1 20 62
M  V30 39 1 20 63
M  V30 40 2 21 22
M  V30 41 1 21 64
M  V30 42 1 22 23
M  V30 43 1 23 24
M  V30 44 1 23 65
M  V30 45 2 24 25
M  V30 46 1 24 26
M  V30 47 2 26 27
M  V30 48 1 26 31
M  V30 49 1 27 28
M  V30 50 1 27 66
M  V30 51 2 28 29
M  V30 52 1 29 30
M  V30 53 1 29 34
M  V30 54 2 30 31
M  V30 55 1 31 32
M  V30 56 1 32 33
M  V30 57 1 32 67
M  V30 58 1 33 68
M  V30 59 1 33 69
M  V30 60 1 33 70
M  V30 61 1 34 35
M  V30 62 1 34 71
M  V30 63 2 35 36
M  V30 64 1 35 41
M  V30 65 1 36 37
M  V30 66 1 36 72
M  V30 67 2 37 38
M  V30 68 1 37 73
M  V30 69 1 38 39
M  V30 70 1 38 40
M  V30 71 1 39 74
M  V30 72 1 39 75
M  V30 73 1 39 76
M  V30 74 2 40 41
M  V30 75 1 40 42
M  V30 76 1 41 77
M  V30 77 1 42 43
M  V30 78 1 42 78
M  V30 79 2 43 44
M  V30 80 1 43 45
M  V30 81 2 45 46
M  V30 82 1 45 79
M  V30 83 1 46 80
M  V30 84 1 46 81
M  V30 END BOND
M  V30 END CTAB
M  END
> <s_m_entry_id>
425

> <s_m_entry_name>
result.4454

> <s_m_Source_Path>
D:\OneDrive - zju.edu.cn\DOC\A-Finished\LCK_VS\Planet\LCK-8617

> <s_m_Source_File>
glide-dock_SP_top1262_2_pv.maegz

> <i_m_Source_File_Index>
425

> <PLANET_affinity>
9.331

> <i_lp_mmshare_version>
54117

> <i_f3d_flags>
0

> <s_epik_input>
W0NIM11PYzFjKE9bQ0gzXSlbY0hdYyhbY0hdYzFPW0NIM10pQyg9TylbTkhdYzJbY0hdW2NIXWMoW0NIM10pYyhbY0hdMilbTkhdQyg9TyljM1tjSF1uYyhuYzNbTkhdW0NIM10pW05IXWM0W2NIXVtjSF1jKFtDSDNdKWMoW2NIXTQpW05IXUMoPU8pW0NIXT1bQ0gyXQ==

> <s_epik_cmdline>
J2VwaWtfcHl0aG9uJywgJy1waCcsICc3LjAnLCAnLXRuJywgJzgnLCAnLW1hJywgJzUwMCcsICctaW1hZScsICc8aW5maWxlLm1hZT4nLCAnLW9tYWUnLCAnPG91dGZpbGUubWFlPic=

> <r_epik_Ionization_Penalty>
  0.0119

> <r_epik_Ionization_Penalty_Charging>
  0.0000

> <r_epik_Ionization_Penalty_Neutral>
  0.0119

> <r_epik_State_Penalty>
  0.0078

> <r_epik_Charging_Adjusted_Penalty>
0.0078014

> <i_epik_Tot_Q>
0

> <i_epik_Tot_abs_Q>
0

> <s_lp_Force_Field>
S-OPLS

> <r_lp_Energy>
75.1013

> <b_lp_Chiralities_Consistent>
1

> <s_lp_Variant>
O=C(C1=CN=C(NC2=CC=C(C)C(NC(C=C)=O)=C2)N=C1NC)NC3=CC(NC(C4=CC(OC)=C(OC)C(OC)=...-1

> <s_i_glide_gridfile>
glide-grid_1

> <i_i_glide_lignum>
407

> <i_i_glide_rotatable_bonds>
15

> <r_i_docking_score>
-8.14852935824015

> <r_i_glide_ligand_efficiency>
-0.177141942570438

> <r_i_glide_ligand_efficiency_sa>
-0.634708059384614

> <r_i_glide_ligand_efficiency_ln>
-1.68754079857016

> <r_i_glide_gscore>
-8.15632935824015

> <r_i_glide_lipo>
-2.35606614040135

> <r_i_glide_hbond>
-0.554867247070853

> <r_i_glide_metal>
0

> <r_i_glide_rewards>
-0.87013050621589

> <r_i_glide_evdw>
-58.7918434143066

> <r_i_glide_ecoul>
-11.9147911071777

> <r_i_glide_erotb>
0.457936602056005

> <r_i_glide_esite>
-0.106391229816073

> <r_i_glide_emodel>
-89.9066709258206

> <r_i_glide_energy>
-70.7066345214844

> <r_i_glide_einternal>
29.7817478179932

> <i_i_glide_confnum>
57

> <i_i_glide_posenum>
298

> <r_i_glide_eff_state_penalty>
0.0078

> <r_lp_tautomer_probability>
1

> <s_m_subgroup_title>
glide-dock_SP_top1262_2_pv

> <s_m_subgroupid>
glide-dock_SP_top1262_2_pv

> <b_m_subgroup_collapsed>
0

$$$$
FC(F)(F)C1=CC=C(C2=NC(C3=CC=C(C(N4CCNCC4)=O)C=C3)=CN=C2N)C=C1
                    3D
 Schrodinger Suite 2021-3.
  0  0  0     0  0            999 V3000
M  V30 BEGIN CTAB
M  V30 COUNTS 52 55 0 0 0
M  V30 BEGIN ATOM
M  V30 1 F  20.9821 41.2680 86.9539 0
M  V30 2 C  21.0772 40.0621 87.5135 0
M  V30 3 F  19.8492 39.5564 87.6440 0
M  V30 4 F  21.5973 40.2043 88.7364 0
M  V30 5 C  21.9261 39.1571 86.6223 0
M  V30 6 C  21.4026 38.6952 85.4133 0
M  V30 7 C  22.1645 37.8747 84.5891 0
M  V30 8 C  23.4632 37.4860 84.9478 0
M  V30 9 C  23.9752 37.9570 86.1661 0
M  V30 10 C  23.2186 38.7782 86.9968 0
M  V30 11 C  24.3026 36.6253 84.0454 0
M  V30 12 N  25.6351 36.9327 84.0181 0
M  V30 13 C  26.4801 36.2142 83.2246 0
M  V30 14 C  25.9599 35.1711 82.4480 0
M  V30 15 N  24.6451 34.8556 82.4490 0
M  V30 16 C  23.8202 35.5651 83.2502 0
M  V30 17 N  22.4878 35.1584 83.2435 0
M  V30 18 C  27.9436 36.5557 83.2606 0
M  V30 19 C  28.4765 37.4558 84.1979 0
M  V30 20 C  29.8513 37.6819 84.2754 0
M  V30 21 C  30.7331 37.0332 83.3997 0
M  V30 22 C  30.1939 36.2178 82.4026 0
M  V30 23 C  28.8370 35.9455 82.3798 0
M  V30 24 C  32.2279 37.2659 83.5111 0
M  V30 25 O  32.6133 38.3650 83.9210 0
M  V30 26 N  33.1109 36.2806 83.1563 0
M  V30 27 C  32.7739 34.8364 83.0505 0
M  V30 28 C  33.6034 33.9961 84.0481 0
M  V30 29 N  35.0997 34.3573 84.0410 0 CHG=1
M  V30 30 C  35.2894 35.8747 84.1987 0
M  V30 31 C  34.5514 36.6007 83.0580 0
M  V30 32 H  20.4076 38.9859 85.1039 0
M  V30 33 H  21.7406 37.5718 83.6441 0
M  V30 34 H  24.9750 37.6861 86.4751 0
M  V30 35 H  23.6481 39.1255 87.9249 0
M  V30 36 H  26.5785 34.5377 81.8340 0
M  V30 37 H  21.8523 35.5824 83.8999 0
M  V30 38 H  22.2000 34.3841 82.6485 0
M  V30 39 H  27.8333 37.9565 84.9050 0
M  V30 40 H  30.2248 38.3519 85.0383 0
M  V30 41 H  30.8133 35.7544 81.6468 0
M  V30 42 H  28.5023 35.2419 81.6437 0
M  V30 43 H  32.9105 34.4755 82.0296 0
M  V30 44 H  31.7451 34.6332 83.3455 0
M  V30 45 H  33.2623 34.1246 85.0790 0
M  V30 46 H  33.5602 32.9275 83.8246 0
M  V30 47 H  35.5345 33.8727 84.8240 0
M  V30 48 H  34.9243 36.1505 85.1918 0
M  V30 49 H  36.3668 36.0451 84.1635 0
M  V30 50 H  34.7529 37.6734 83.0909 0
M  V30 51 H  34.9252 36.2616 82.0916 0
M  V30 52 H  35.5364 34.0286 83.1916 0
M  V30 END ATOM
M  V30 BEGIN BOND
M  V30 1 1 1 2
M  V30 2 1 2 3
M  V30 3 1 2 4
M  V30 4 1 2 5
M  V30 5 2 5 6
M  V30 6 1 5 10
M  V30 7 1 6 7
M  V30 8 1 6 32
M  V30 9 2 7 8
M  V30 10 1 7 33
M  V30 11 1 8 9
M  V30 12 1 8 11
M  V30 13 2 9 10
M  V30 14 1 9 34
M  V30 15 1 10 35
M  V30 16 2 11 12
M  V30 17 1 11 16
M  V30 18 1 12 13
M  V30 19 2 13 14
M  V30 20 1 13 18
M  V30 21 1 14 15
M  V30 22 1 14 36
M  V30 23 2 15 16
M  V30 24 1 16 17
M  V30 25 1 17 37
M  V30 26 1 17 38
M  V30 27 2 18 19
M  V30 28 1 18 23
M  V30 29 1 19 20
M  V30 30 1 19 39
M  V30 31 2 20 21
M  V30 32 1 20 40
M  V30 33 1 21 22
M  V30 34 1 21 24
M  V30 35 2 22 23
M  V30 36 1 22 41
M  V30 37 1 23 42
M  V30 38 2 24 25
M  V30 39 1 24 26
M  V30 40 1 26 27
M  V30 41 1 26 31
M  V30 42 1 27 28
M  V30 43 1 27 43
M  V30 44 1 27 44
M  V30 45 1 28 29
M  V30 46 1 28 45
M  V30 47 1 28 46
M  V30 48 1 29 30
M  V30 49 1 29 47
M  V30 50 1 29 52
M  V30 51 1 30 31
M  V30 52 1 30 48
M  V30 53 1 30 49
M  V30 54 1 31 50
M  V30 55 1 31 51
M  V30 END BOND
M  V30 END CTAB
M  END
> <s_m_entry_id>
429

> <s_m_entry_name>
result.1831

> <s_m_Source_Path>
D:\OneDrive - zju.edu.cn\DOC\A-Finished\LCK_VS\Planet\LCK-8617

> <s_m_Source_File>
glide-dock_SP_top1262_2_pv.maegz

> <i_m_Source_File_Index>
429

> <PLANET_affinity>
7.856

> <i_lp_mmshare_version>
54117

> <i_f3d_flags>
0

> <s_epik_input>
RkMoRikoRiljMVtjSF1bY0hdYyhbY0hdW2NIXTEpLWMybmMoW2NIXW5jMltOSDJdKS1jM1tjSF1bY0hdYyhbY0hdW2NIXTMpQyg9TylONFtDSDJdW0NIMl1bTkhdW0NIMl1bQ0gyXTQ=

> <s_epik_cmdline>
J2VwaWtfcHl0aG9uJywgJy1waCcsICc3LjAnLCAnLXRuJywgJzgnLCAnLW1hJywgJzUwMCcsICctaW1hZScsICc8aW5maWxlLm1hZT4nLCAnLW9tYWUnLCAnPG91dGZpbGUubWFlPic=

> <r_epik_Ionization_Penalty>
  0.0519

> <r_epik_Ionization_Penalty_Charging>
  0.0518

> <r_epik_Ionization_Penalty_Neutral>
  0.0001

> <r_epik_State_Penalty>
  0.0444

> <r_epik_Charging_Adjusted_Penalty>
0.0962544

> <i_epik_Tot_Q>
1

> <i_epik_Tot_abs_Q>
1

> <s_lp_Force_Field>
S-OPLS

> <r_lp_Energy>
59.2154

> <b_lp_Chiralities_Consistent>
1

> <s_lp_Variant>
FC(F)(F)C1=CC=C(C2=NC(C3=CC=C(C(N4CCNCC4)=O)C=C3)=CN=C2N)C=C1-1

> <s_i_glide_gridfile>
glide-grid_1

> <i_i_glide_lignum>
1444

> <i_i_glide_rotatable_bonds>
5

> <r_i_docking_score>
-8.13867503039137

> <r_i_glide_ligand_efficiency>
-0.262537904206173

> <r_i_glide_ligand_efficiency_sa>
-0.824731491848618

> <r_i_glide_ligand_efficiency_ln>
-1.83552063978867

> <r_i_glide_gscore>
-8.18307503039137

> <r_i_glide_lipo>
-2.84200532424804

> <r_i_glide_hbond>
-0.766833365935054

> <r_i_glide_metal>
0

> <r_i_glide_rewards>
-1.52629394268748

> <r_i_glide_evdw>
-34.4828910827637

> <r_i_glide_ecoul>
-9.50113201141357

> <r_i_glide_erotb>
0.303009552058387

> <r_i_glide_esite>
-0.201637593728954

> <r_i_glide_emodel>
-72.1543668123475

> <r_i_glide_energy>
-43.9840230941772

> <r_i_glide_einternal>
1.72546887397766

> <i_i_glide_confnum>
156

> <i_i_glide_posenum>
203

> <r_i_glide_eff_state_penalty>
0.0444

> <r_lp_tautomer_probability>
1

> <s_m_subgroup_title>
glide-dock_SP_top1262_2_pv

> <s_m_subgroupid>
glide-dock_SP_top1262_2_pv

> <b_m_subgroup_collapsed>
0

$$$$
ClC1=CC=C2C(OCO2)=C1NC3=C4C(OC5CCOCC5)=CC(OCCN6CCN(C)CC6)=CC4=NC=N3
                    3D
 Schrodinger Suite 2021-3.
  0  0  0     0  0            999 V3000
M  V30 BEGIN CTAB
M  V30 COUNTS 71 76 0 0 0
M  V30 BEGIN ATOM
M  V30 1 O  19.7140 35.6683 87.6639 0
M  V30 2 C  20.7833 34.7703 87.5011 0
M  V30 3 O  21.8645 35.4808 86.9581 0
M  V30 4 C  21.3899 36.7100 86.6273 0
M  V30 5 C  20.0952 36.8200 87.0536 0
M  V30 6 C  22.0601 37.7661 86.0036 0
M  V30 7 C  21.3317 38.9546 85.7974 0
M  V30 8 Cl 22.0444 40.3124 84.9957 0
M  V30 9 C  19.9994 39.0616 86.2359 0
M  V30 10 C  19.3632 37.9916 86.8787 0
M  V30 11 N  23.3935 37.6399 85.5757 0
M  V30 12 C  23.9463 36.7964 84.6012 0
M  V30 13 N  23.0784 35.9796 83.9519 0
M  V30 14 C  23.5925 35.2128 82.9665 0
M  V30 15 N  24.8837 35.1566 82.5725 0
M  V30 16 C  25.7562 35.9676 83.2317 0
M  V30 17 C  25.3462 36.8471 84.2820 0
M  V30 18 C  27.1073 35.9257 82.8366 0
M  V30 19 C  28.0568 36.7558 83.4345 0
M  V30 20 C  27.6542 37.6193 84.4440 0
M  V30 21 C  26.3270 37.6874 84.9018 0
M  V30 22 O  25.9283 38.5194 85.9391 0
M  V30 23 C  26.8490 39.4003 86.5842 0
M  V30 24 C  27.1177 40.6691 85.7480 0
M  V30 25 C  28.0573 41.6149 86.5202 0
M  V30 26 O  27.4812 41.9197 87.7916 0
M  V30 27 C  27.2752 40.7859 88.6331 0
M  V30 28 C  26.2938 39.8080 87.9567 0
M  V30 29 O  29.3977 36.7718 83.1041 0
M  V30 30 C  29.8727 35.9136 82.0669 0
M  V30 31 C  31.3422 36.2573 81.7354 0
M  V30 32 N  32.2534 35.1546 82.0650 0 CFG=1
M  V30 33 C  33.5171 35.2713 81.3231 0
M  V30 34 C  34.3900 34.0149 81.5541 0
M  V30 35 N  34.6901 33.8846 83.0702 0 CHG=1
M  V30 36 C  35.5432 32.6339 83.3653 0
M  V30 37 C  33.3497 33.8168 83.8388 0
M  V30 38 C  32.5149 35.0762 83.5089 0
M  V30 39 H  21.0814 34.3464 88.4517 0
M  V30 40 H  20.4839 33.9567 86.8409 0
M  V30 41 H  19.4566 39.9847 86.0828 0
M  V30 42 H  18.3423 38.0848 87.2228 0
M  V30 43 H  24.0491 38.3117 85.9512 0
M  V30 44 H  22.8907 34.5880 82.4439 0
M  V30 45 H  27.3815 35.2370 82.0491 0
M  V30 46 H  28.4253 38.2371 84.8762 0
M  V30 47 H  27.7827 38.8722 86.7853 0
M  V30 48 H  26.1820 41.2037 85.5653 0
M  V30 49 H  27.5701 40.4280 84.7857 0
M  V30 50 H  28.1958 42.5437 85.9668 0
M  V30 51 H  29.0471 41.1734 86.6467 0
M  V30 52 H  26.8774 41.1254 89.5894 0
M  V30 53 H  28.2320 40.3006 88.8429 0
M  V30 54 H  26.1609 38.9344 88.5926 0
M  V30 55 H  25.3330 40.3142 87.8442 0
M  V30 56 H  29.7502 34.8683 82.3608 0
M  V30 57 H  29.2833 36.0519 81.1605 0
M  V30 58 H  31.3982 36.4708 80.6678 0
M  V30 59 H  31.6501 37.1760 82.2396 0
M  V30 60 H  33.2982 35.3462 80.2556 0
M  V30 61 H  34.0548 36.1813 81.6010 0
M  V30 62 H  35.3551 34.0962 81.0476 0
M  V30 63 H  33.8879 33.0993 81.2240 0
M  V30 64 H  34.9925 31.7489 83.0372 0
M  V30 65 H  36.4863 32.7439 82.8271 0
M  V30 66 H  35.7203 32.6069 84.4416 0
M  V30 67 H  33.6135 33.7734 84.8942 0
M  V30 68 H  32.8446 32.8891 83.5586 0
M  V30 69 H  33.0164 35.9794 83.8706 0
M  V30 70 H  31.5648 35.0204 84.0435 0
M  V30 71 H  35.1819 34.7151 83.3779 0
M  V30 END ATOM
M  V30 BEGIN BOND
M  V30 1 1 1 2
M  V30 2 1 1 5
M  V30 3 1 2 3
M  V30 4 1 2 39
M  V30 5 1 2 40
M  V30 6 1 3 4
M  V30 7 2 4 5
M  V30 8 1 4 6
M  V30 9 1 5 10
M  V30 10 2 6 7
M  V30 11 1 6 11
M  V30 12 1 7 8
M  V30 13 1 7 9
M  V30 14 2 9 10
M  V30 15 1 9 41
M  V30 16 1 10 42
M  V30 17 1 11 12
M  V30 18 1 11 43
M  V30 19 2 12 13
M  V30 20 1 12 17
M  V30 21 1 13 14
M  V30 22 2 14 15
M  V30 23 1 14 44
M  V30 24 1 15 16
M  V30 25 2 16 17
M  V30 26 1 16 18
M  V30 27 1 17 21
M  V30 28 2 18 19
M  V30 29 1 18 45
M  V30 30 1 19 20
M  V30 31 1 19 29
M  V30 32 2 20 21
M  V30 33 1 20 46
M  V30 34 1 21 22
M  V30 35 1 22 23
M  V30 36 1 23 24
M  V30 37 1 23 28
M  V30 38 1 23 47
M  V30 39 1 24 25
M  V30 40 1 24 48
M  V30 41 1 24 49
M  V30 42 1 25 26
M  V30 43 1 25 50
M  V30 44 1 25 51
M  V30 45 1 26 27
M  V30 46 1 27 28
M  V30 47 1 27 52
M  V30 48 1 27 53
M  V30 49 1 28 54
M  V30 50 1 28 55
M  V30 51 1 29 30
M  V30 52 1 30 31
M  V30 53 1 30 56
M  V30 54 1 30 57
M  V30 55 1 31 32
M  V30 56 1 31 58
M  V30 57 1 31 59
M  V30 58 1 32 33
M  V30 59 1 32 38
M  V30 60 1 33 34
M  V30 61 1 33 60
M  V30 62 1 33 61
M  V30 63 1 34 35
M  V30 64 1 34 62
M  V30 65 1 34 63
M  V30 66 1 35 36
M  V30 67 1 35 37
M  V30 68 1 35 71
M  V30 69 1 36 64
M  V30 70 1 36 65
M  V30 71 1 36 66
M  V30 72 1 37 38
M  V30 73 1 37 67
M  V30 74 1 37 68
M  V30 75 1 38 69
M  V30 76 1 38 70
M  V30 END BOND
M  V30 END CTAB
M  END
> <s_m_entry_id>
432

> <s_m_entry_name>
result.874

> <s_m_Source_Path>
D:\OneDrive - zju.edu.cn\DOC\A-Finished\LCK_VS\Planet\LCK-8617

> <s_m_Source_File>
glide-dock_SP_top1262_2_pv.maegz

> <i_m_Source_File_Index>
432

> <PLANET_affinity>
8.158

> <i_lp_mmshare_version>
54117

> <i_f3d_flags>
0

> <s_epik_input>
TzFbQ0gyXU9jKGMxMilbY0hdW2NIXWMoQ2wpYzJbTkhdYyhuW2NIXW4zKWMoYzM0KWMoT1tDSF01W0NIMl1bQ0gyXU9bQ0gyXVtDSDJdNSlbY0hdYyhbY0hdNClPW0NIMl1bQ0gyXU42W0NIMl1bQ0gyXU4oW0NIM10pW0NIMl1bQ0gyXTY=

> <s_epik_cmdline>
J2VwaWtfcHl0aG9uJywgJy1waCcsICc3LjAnLCAnLXRuJywgJzgnLCAnLW1hJywgJzUwMCcsICctaW1hZScsICc8aW5maWxlLm1hZT4nLCAnLW9tYWUnLCAnPG91dGZpbGUubWFlPic=

> <r_epik_Ionization_Penalty>
  0.0557

> <r_epik_Ionization_Penalty_Charging>
  0.0378

> <r_epik_Ionization_Penalty_Neutral>
  0.0179

> <r_epik_State_Penalty>
  0.1518

> <r_epik_Charging_Adjusted_Penalty>
0.189593

> <i_epik_Tot_Q>
1

> <i_epik_Tot_abs_Q>
1

> <s_epik_Chemistry_Notes>
This compound contains an acetal/aminal-like group ( X-CH(R)-Y where X, Y are N, S, or O) that may be acid/base labile, releasing an aldehyde.

> <s_lp_Force_Field>
S-OPLS

> <r_lp_Energy>
83.6379

> <b_lp_Chiralities_Consistent>
1

> <s_lp_Variant>
ClC1=CC=C2C(OCO2)=C1NC3=C4C(OC5CCOCC5)=CC(OCCN6CCN(C)CC6)=CC4=NC=N3-1

> <s_i_glide_gridfile>
glide-grid_1

> <i_i_glide_lignum>
1145

> <i_i_glide_rotatable_bonds>
8

> <r_i_docking_score>
-8.13600580440585

> <r_i_glide_ligand_efficiency>
-0.214105415905417

> <r_i_glide_ligand_efficiency_sa>
-0.719817141863677

> <r_i_glide_ligand_efficiency_ln>
-1.75436218847217

> <r_i_glide_gscore>
-8.28780580440585

> <r_i_glide_lipo>
-3.0207293909091

> <r_i_glide_hbond>
-0.205324230227203

> <r_i_glide_metal>
0

> <r_i_glide_rewards>
-1.78088096484709

> <r_i_glide_evdw>
-49.4145622253418

> <r_i_glide_ecoul>
-8.94562149047852

> <r_i_glide_erotb>
0.561299862255677

> <r_i_glide_esite>
-0.0295997458392652

> <r_i_glide_emodel>
-90.9529631172566

> <r_i_glide_energy>
-58.3601837158203

> <r_i_glide_einternal>
5.80216693878174

> <i_i_glide_confnum>
23

> <i_i_glide_posenum>
399

> <r_i_glide_eff_state_penalty>
0.1518

> <r_lp_tautomer_probability>
0.999978

> <s_m_subgroup_title>
glide-dock_SP_top1262_2_pv

> <s_m_subgroupid>
glide-dock_SP_top1262_2_pv

> <b_m_subgroup_collapsed>
0

$$$$
NC1=C2C(N(C)C=C2C3=CC4=C(N(C(CC5=CC=CC(C(F)(F)F)=C5)=O)CC4)C=C3)=NC=N1
                    3D
 Schrodinger Suite 2021-3.
  0  0  0     0  0            999 V3000
M  V30 BEGIN CTAB
M  V30 COUNTS 53 57 0 0 0
M  V30 BEGIN ATOM
M  V30 1 N  29.5710 35.1568 82.8435 0
M  V30 2 C  30.5604 36.1289 82.8223 0
M  V30 3 N  31.7733 35.7170 82.3921 0
M  V30 4 C  32.7624 36.6397 82.3533 0
M  V30 5 N  32.6891 37.9465 82.7107 0
M  V30 6 C  31.4752 38.3135 83.1438 0
M  V30 7 C  30.3291 37.4628 83.2325 0
M  V30 8 N  31.1068 39.5706 83.5936 0
M  V30 9 C  31.9480 40.7567 83.6380 0
M  V30 10 C  29.7764 39.5297 83.9311 0
M  V30 11 C  29.2369 38.2666 83.7383 0
M  V30 12 C  27.8192 37.8911 84.0104 0
M  V30 13 C  27.1071 37.0220 83.1768 0
M  V30 14 C  27.1821 38.4216 85.1362 0
M  V30 15 C  25.8565 38.0977 85.4253 0
M  V30 16 C  25.1704 37.1857 84.6133 0
M  V30 17 C  25.7937 36.6655 83.4798 0
M  V30 18 N  23.8425 36.7203 84.6858 0
M  V30 19 C  23.6222 35.7410 83.6098 0
M  V30 20 C  24.8270 35.8406 82.6856 0
M  V30 21 C  23.0080 36.8488 85.7565 0
M  V30 22 O  23.1153 37.7628 86.5744 0
M  V30 23 C  21.9200 35.7880 86.0243 0
M  V30 24 C  20.5545 36.3464 86.3983 0
M  V30 25 C  19.9173 35.9606 87.5824 0
M  V30 26 C  18.6422 36.4437 87.8827 0
M  V30 27 C  17.9909 37.3027 86.9952 0
M  V30 28 C  18.6137 37.6672 85.7947 0
M  V30 29 C  17.9667 38.6035 84.7928 0
M  V30 30 F  18.8589 39.5561 84.5266 0
M  V30 31 F  17.6869 37.9572 83.6608 0
M  V30 32 F  16.8436 39.1564 85.2432 0
M  V30 33 C  19.8900 37.1834 85.5062 0
M  V30 34 H  28.6615 35.3750 83.2148 0
M  V30 35 H  29.8275 34.2115 82.5742 0
M  V30 36 H  33.7233 36.2908 82.0041 0
M  V30 37 H  32.1375 41.1029 82.6217 0
M  V30 38 H  31.4600 41.5557 84.2002 0
M  V30 39 H  32.8947 40.5135 84.1202 0
M  V30 40 H  29.3008 40.4311 84.2927 0
M  V30 41 H  27.5640 36.6495 82.2720 0
M  V30 42 H  27.7109 39.0972 85.7930 0
M  V30 43 H  25.3990 38.5444 86.2935 0
M  V30 44 H  23.6865 34.7572 84.0617 0
M  V30 45 H  22.6527 35.7891 83.1068 0
M  V30 46 H  25.1911 34.8517 82.4068 0
M  V30 47 H  24.5400 36.3566 81.7697 0
M  V30 48 H  22.2787 35.1564 86.8381 0
M  V30 49 H  21.7641 35.1511 85.1660 0
M  V30 50 H  20.4017 35.2759 88.2636 0
M  V30 51 H  18.1561 36.1436 88.8012 0
M  V30 52 H  17.0060 37.6751 87.2438 0
M  V30 53 H  20.3703 37.4679 84.5803 0
M  V30 END ATOM
M  V30 BEGIN BOND
M  V30 1 1 1 2
M  V30 2 1 1 34
M  V30 3 1 1 35
M  V30 4 2 2 3
M  V30 5 1 2 7
M  V30 6 1 3 4
M  V30 7 2 4 5
M  V30 8 1 4 36
M  V30 9 1 5 6
M  V30 10 2 6 7
M  V30 11 1 6 8
M  V30 12 1 7 11
M  V30 13 1 8 9
M  V30 14 1 8 10
M  V30 15 1 9 37
M  V30 16 1 9 38
M  V30 17 1 9 39
M  V30 18 2 10 11
M  V30 19 1 10 40
M  V30 20 1 11 12
M  V30 21 2 12 13
M  V30 22 1 12 14
M  V30 23 1 13 17
M  V30 24 1 13 41
M  V30 25 2 14 15
M  V30 26 1 14 42
M  V30 27 1 15 16
M  V30 28 1 15 43
M  V30 29 2 16 17
M  V30 30 1 16 18
M  V30 31 1 17 20
M  V30 32 1 18 19
M  V30 33 1 18 21
M  V30 34 1 19 20
M  V30 35 1 19 44
M  V30 36 1 19 45
M  V30 37 1 20 46
M  V30 38 1 20 47
M  V30 39 2 21 22
M  V30 40 1 21 23
M  V30 41 1 23 24
M  V30 42 1 23 48
M  V30 43 1 23 49
M  V30 44 2 24 25
M  V30 45 1 24 33
M  V30 46 1 25 26
M  V30 47 1 25 50
M  V30 48 2 26 27
M  V30 49 1 26 51
M  V30 50 1 27 28
M  V30 51 1 27 52
M  V30 52 1 28 29
M  V30 53 2 28 33
M  V30 54 1 29 30
M  V30 55 1 29 31
M  V30 56 1 29 32
M  V30 57 1 33 53
M  V30 END BOND
M  V30 END CTAB
M  END
> <s_m_entry_id>
443

> <s_m_entry_name>
result.1766

> <s_m_Source_Path>
D:\OneDrive - zju.edu.cn\DOC\A-Finished\LCK_VS\Planet\LCK-8617

> <s_m_Source_File>
glide-dock_SP_top1262_2_pv.maegz

> <i_m_Source_File_Index>
443

> <PLANET_affinity>
7.968

> <i_lp_mmshare_version>
54117

> <i_f3d_flags>
0

> <s_epik_input>
bjFbY0hdbmMoW05IMl0pYyhjMTIpYyhbY0hdbjJbQ0gzXSktYyhbY0hdW2NIXTMpW2NIXWMoYzM0KVtDSDJdW0NIMl1ONEMoPU8pW0NIMl1jNVtjSF1bY0hdW2NIXWMoQyhGKShGKUYpW2NIXTU=

> <s_epik_cmdline>
J2VwaWtfcHl0aG9uJywgJy1waCcsICc3LjAnLCAnLXRuJywgJzgnLCAnLW1hJywgJzUwMCcsICctaW1hZScsICc8aW5maWxlLm1hZT4nLCAnLW9tYWUnLCAnPG91dGZpbGUubWFlPic=

> <r_epik_Ionization_Penalty>
  0.0039

> <r_epik_Ionization_Penalty_Charging>
  0.0000

> <r_epik_Ionization_Penalty_Neutral>
  0.0039

> <r_epik_State_Penalty>
  0.0027

> <r_epik_Charging_Adjusted_Penalty>
0.00270979

> <i_epik_Tot_Q>
0

> <i_epik_Tot_abs_Q>
0

> <s_lp_Force_Field>
S-OPLS

> <r_lp_Energy>
46.8981

> <b_lp_Chiralities_Consistent>
1

> <s_lp_Variant>
NC1=C2C(N(C)C=C2C3=CC4=C(N(C(CC5=CC=CC(C(F)(F)F)=C5)=O)CC4)C=C3)=NC=N1-1

> <s_i_glide_gridfile>
glide-grid_1

> <i_i_glide_lignum>
1320

> <i_i_glide_rotatable_bonds>
5

> <r_i_docking_score>
-8.11111939206922

> <r_i_glide_ligand_efficiency>
-0.24579149672937

> <r_i_glide_ligand_efficiency_sa>
-0.788384662861648

> <r_i_glide_ligand_efficiency_ln>
-1.80387095566762

> <r_i_glide_gscore>
-8.11381939206922

> <r_i_glide_lipo>
-3.98459154781096

> <r_i_glide_hbond>
-0.32

> <r_i_glide_metal>
0

> <r_i_glide_rewards>
-1.55194237507922

> <r_i_glide_evdw>
-43.4885635375977

> <r_i_glide_ecoul>
-2.92427015304565

> <r_i_glide_erotb>
0.393659996028147

> <r_i_glide_esite>
-0.0378767653704557

> <r_i_glide_emodel>
-68.6812378716472

> <r_i_glide_energy>
-46.4128336906433

> <r_i_glide_einternal>
3.14012145996094

> <i_i_glide_confnum>
20

> <i_i_glide_posenum>
364

> <r_i_glide_eff_state_penalty>
0.0027

> <s_m_subgroup_title>
glide-dock_SP_top1262_2_pv

> <s_m_subgroupid>
glide-dock_SP_top1262_2_pv

> <b_m_subgroup_collapsed>
0

$$$$
O=C(N)C1=CC(N=C(NC(C2=CC(C)=NN2CC)=O)N3C/C=C/CN4C(NC(C5=CC(C)=NN5CC)=O)=NC6=C...
                    3D
 Schrodinger Suite 2021-3.
  0  0  0     0  0            999 V3000
M  V30 BEGIN CTAB
M  V30 COUNTS 113 119 0 0 0
M  V30 BEGIN ATOM
M  V30 1 C  25.9002 46.2642 91.2020 0
M  V30 2 C  26.3314 45.5867 92.5145 0
M  V30 3 N  25.5881 44.3434 92.7355 0
M  V30 4 N  24.5977 44.3559 93.6435 0
M  V30 5 C  24.0900 43.1441 93.6454 0
M  V30 6 C  22.9819 42.7800 94.6050 0
M  V30 7 C  24.7387 42.3400 92.7059 0
M  V30 8 C  25.7082 43.1258 92.0866 0
M  V30 9 C  26.6903 42.7702 91.0786 0
M  V30 10 O  27.7186 43.4212 90.8719 0
M  V30 11 N  26.2724 41.6558 90.3661 0
M  V30 12 C  26.8078 41.2557 89.2761 0
M  V30 13 N  27.9278 41.7214 88.5426 0
M  V30 14 N  26.3605 40.1790 88.4610 0
M  V30 15 C  27.1083 40.0397 87.2945 0
M  V30 16 C  28.1038 41.0123 87.3569 0
M  V30 17 C  27.0199 39.1796 86.1911 0
M  V30 18 O  26.0205 38.2262 86.2196 0
M  V30 19 C  25.8808 37.3266 85.1260 0
M  V30 20 C  27.9350 39.3402 85.1387 0
M  V30 21 C  28.9368 40.3206 85.1922 0
M  V30 22 C  29.0244 41.1532 86.3201 0
M  V30 23 C  29.8757 40.4855 84.0270 0
M  V30 24 O  29.4854 40.3631 82.8684 0
M  V30 25 N  31.1470 40.7567 84.3173 0
M  V30 26 C  25.0650 39.5590 88.7302 0
M  V30 27 C  23.9266 40.2580 88.0157 0
M  V30 28 C  22.7185 40.5268 88.5414 0
M  V30 29 C  21.6184 41.3171 87.8406 0
M  V30 30 N  22.0690 42.2193 86.7689 0
M  V30 31 C  22.2126 41.8074 85.3961 0
M  V30 32 N  23.0924 42.7908 84.8939 0
M  V30 33 N  21.7655 40.8486 84.6784 0
M  V30 34 C  20.7649 39.9887 85.0934 0
M  V30 35 O  19.6830 40.3567 85.5480 0
M  V30 36 C  21.0223 38.6244 84.7049 0
M  V30 37 C  22.2346 37.9857 84.4894 0
M  V30 38 C  21.9354 36.7072 84.0257 0
M  V30 39 C  22.8651 35.6673 83.4486 0
M  V30 40 N  20.6415 36.4892 84.0572 0
M  V30 41 N  20.0845 37.6252 84.5074 0
M  V30 42 C  18.6237 37.6735 84.6154 0
M  V30 43 C  18.1601 37.6005 86.0860 0
M  V30 44 C  22.7839 43.3955 87.0277 0
M  V30 45 C  23.4341 43.7379 85.8491 0
M  V30 46 C  22.9235 44.2113 88.1618 0
M  V30 47 C  23.7523 45.3435 88.0936 0
M  V30 48 C  24.4218 45.6816 86.9050 0
M  V30 49 C  24.2519 44.8633 85.7779 0
M  V30 50 C  25.3198 46.8924 86.8211 0
M  V30 51 O  26.2673 46.9460 86.0452 0
M  V30 52 N  25.0245 47.9227 87.6132 0
M  V30 53 O  22.2383 43.8280 89.2979 0
M  V30 54 C  22.0711 44.7505 90.3678 0
M  V30 55 C  20.9079 44.2707 91.2460 0
M  V30 56 C  19.5436 44.2996 90.5231 0
M  V30 57 N  18.5069 43.5563 91.2464 0
M  V30 58 C  18.1567 44.1578 92.5431 0
M  V30 59 C  16.9947 43.4072 93.2344 0
M  V30 60 O  15.8744 43.3097 92.3591 0
M  V30 61 C  16.1919 42.6269 91.1496 0
M  V30 62 C  17.3145 43.3743 90.3973 0
M  V30 63 H  26.4559 47.1878 91.0439 0
M  V30 64 H  24.8394 46.5183 91.2207 0
M  V30 65 H  26.0777 45.6222 90.3385 0
M  V30 66 H  27.3977 45.3597 92.5226 0
M  V30 67 H  26.1660 46.2614 93.3603 0
M  V30 68 H  22.6936 41.7328 94.5106 0
M  V30 69 H  23.2835 42.9337 95.6406 0
M  V30 70 H  22.0846 43.3756 94.4401 0
M  V30 71 H  24.5287 41.2973 92.5050 0
M  V30 72 H  25.0836 36.6181 85.3524 0
M  V30 73 H  25.6048 37.8553 84.2115 0
M  V30 74 H  26.7922 36.7563 84.9462 0
M  V30 75 H  27.8733 38.7075 84.2640 0
M  V30 76 H  29.7753 41.9309 86.3707 0
M  V30 77 H  31.4425 40.8571 85.2758 0
M  V30 78 H  31.7874 40.9554 83.5633 0
M  V30 79 H  25.1130 38.5265 88.3911 0
M  V30 80 H  24.8832 39.5547 89.8065 0
M  V30 81 H  24.1536 40.5679 87.0073 0
M  V30 82 H  22.4864 40.1831 89.5383 0
M  V30 83 H  20.7968 40.6525 87.5925 0
M  V30 84 H  21.1498 41.9402 88.5991 0
M  V30 85 H  23.2126 38.4318 84.5683 0
M  V30 86 H  23.8885 36.0321 83.3718 0
M  V30 87 H  22.8800 34.7624 84.0432 0
M  V30 88 H  22.5595 35.3788 82.4413 0
M  V30 89 H  18.2693 38.5828 84.1305 0
M  V30 90 H  18.1951 36.8494 84.0410 0
M  V30 91 H  17.0706 37.5430 86.1400 0
M  V30 92 H  18.5613 36.7234 86.5948 0
M  V30 93 H  18.4737 38.4671 86.6608 0
M  V30 94 H  23.8904 45.9523 88.9736 0
M  V30 95 H  24.7434 45.1087 84.8443 0
M  V30 96 H  24.1832 47.9113 88.1664 0
M  V30 97 H  25.6080 48.7447 87.5806 0
M  V30 98 H  22.9911 44.8005 90.9500 0
M  V30 99 H  21.8491 45.7553 90.0016 0
M  V30 100 H  21.1120 43.2906 91.6774 0
M  V30 101 H  20.8649 44.9626 92.0854 0
M  V30 102 H  19.2219 45.3340 90.3844 0
M  V30 103 H  19.6608 43.9075 89.5101 0
M  V30 104 H  19.0274 44.1688 93.1996 0
M  V30 105 H  17.8787 45.2041 92.3980 0
M  V30 106 H  16.6876 43.9433 94.1323 0
M  V30 107 H  17.3083 42.4137 93.5602 0
M  V30 108 H  15.2982 42.5718 90.5289 0
M  V30 109 H  16.4816 41.5964 91.3635 0
M  V30 110 H  16.9516 44.3472 90.0561 0
M  V30 111 H  17.5832 42.8277 89.4909 0
M  V30 112 H  23.3990 42.8260 83.9348 0
M  V30 113 H  28.4937 42.5013 88.8467 0
M  V30 END ATOM
M  V30 BEGIN BOND
M  V30 1 1 1 2
M  V30 2 1 1 63
M  V30 3 1 1 64
M  V30 4 1 1 65
M  V30 5 1 2 3
M  V30 6 1 2 66
M  V30 7 1 2 67
M  V30 8 1 3 4
M  V30 9 1 3 8
M  V30 10 2 4 5
M  V30 11 1 5 6
M  V30 12 1 5 7
M  V30 13 1 6 68
M  V30 14 1 6 69
M  V30 15 1 6 70
M  V30 16 2 7 8
M  V30 17 1 7 71
M  V30 18 1 8 9
M  V30 19 2 9 10
M  V30 20 1 9 11
M  V30 21 2 11 12
M  V30 22 1 12 13
M  V30 23 1 12 14
M  V30 24 1 13 16
M  V30 25 1 13 113
M  V30 26 1 14 15
M  V30 27 1 14 26
M  V30 28 2 15 16
M  V30 29 1 15 17
M  V30 30 1 16 22
M  V30 31 1 17 18
M  V30 32 2 17 20
M  V30 33 1 18 19
M  V30 34 1 19 72
M  V30 35 1 19 73
M  V30 36 1 19 74
M  V30 37 1 20 21
M  V30 38 1 20 75
M  V30 39 2 21 22
M  V30 40 1 21 23
M  V30 41 1 22 76
M  V30 42 2 23 24
M  V30 43 1 23 25
M  V30 44 1 25 77
M  V30 45 1 25 78
M  V30 46 1 26 27
M  V30 47 1 26 79
M  V30 48 1 26 80
M  V30 49 2 27 28
M  V30 50 1 27 81
M  V30 51 1 28 29
M  V30 52 1 28 82
M  V30 53 1 29 30
M  V30 54 1 29 83
M  V30 55 1 29 84
M  V30 56 1 30 31
M  V30 57 1 30 44
M  V30 58 1 31 32
M  V30 59 2 31 33
M  V30 60 1 32 45
M  V30 61 1 32 112
M  V30 62 1 33 34
M  V30 63 2 34 35
M  V30 64 1 34 36
M  V30 65 2 36 37
M  V30 66 1 36 41
M  V30 67 1 37 38
M  V30 68 1 37 85
M  V30 69 1 38 39
M  V30 70 2 38 40
M  V30 71 1 39 86
M  V30 72 1 39 87
M  V30 73 1 39 88
M  V30 74 1 40 41
M  V30 75 1 41 42
M  V30 76 1 42 43
M  V30 77 1 42 89
M  V30 78 1 42 90
M  V30 79 1 43 91
M  V30 80 1 43 92
M  V30 81 1 43 93
M  V30 82 2 44 45
M  V30 83 1 44 46
M  V30 84 1 45 49
M  V30 85 2 46 47
M  V30 86 1 46 53
M  V30 87 1 47 48
M  V30 88 1 47 94
M  V30 89 2 48 49
M  V30 90 1 48 50
M  V30 91 1 49 95
M  V30 92 2 50 51
M  V30 93 1 50 52
M  V30 94 1 52 96
M  V30 95 1 52 97
M  V30 96 1 53 54
M  V30 97 1 54 55
M  V30 98 1 54 98
M  V30 99 1 54 99
M  V30 100 1 55 56
M  V30 101 1 55 100
M  V30 102 1 55 101
M  V30 103 1 56 57
M  V30 104 1 56 102
M  V30 105 1 56 103
M  V30 106 1 57 58
M  V30 107 1 57 62
M  V30 108 1 58 59
M  V30 109 1 58 104
M  V30 110 1 58 105
M  V30 111 1 59 60
M  V30 112 1 59 106
M  V30 113 1 59 107
M  V30 114 1 60 61
M  V30 115 1 61 62
M  V30 116 1 61 108
M  V30 117 1 61 109
M  V30 118 1 62 110
M  V30 119 1 62 111
M  V30 END BOND
M  V30 END CTAB
M  END
> <s_m_entry_id>
447

> <s_m_entry_name>
result.4610

> <s_m_Source_Path>
D:\OneDrive - zju.edu.cn\DOC\A-Finished\LCK_VS\Planet\LCK-8617

> <s_m_Source_File>
glide-dock_SP_top1262_2_pv.maegz

> <i_m_Source_File_Index>
447

> <PLANET_affinity>
12.766

> <i_lp_mmshare_version>
54117

> <i_f3d_flags>
0

> <s_epik_input>
W0NIM11bQ0gyXW4xbmMoW0NIM10pW2NIXWMxQyg9TykvTj1jKFxbbkhdYyhjMjMpW2NIXWMoQyg9TylbTkgyXSlbY0hdYzNPW0NIM10pbjJbQ0gyXS9bQ0hdPVtDSF0vW0NIMl1uNGMoW05IXUMoPU8pYzVbY0hdYyhbQ0gzXSlubjVbQ0gyXVtDSDNdKW5jKGM0NilbY0hdYyhDKD1PKVtOSDJdKVtjSF1jNk9bQ0gyXVtDSDJdW0NIMl1ON1tDSDJdW0NIMl1PW0NIMl1bQ0gyXTc=

> <s_epik_cmdline>
J2VwaWtfcHl0aG9uJywgJy1waCcsICc3LjAnLCAnLXRuJywgJzgnLCAnLW1hJywgJzUwMCcsICctaW1hZScsICc8aW5maWxlLm1hZT4nLCAnLW9tYWUnLCAnPG91dGZpbGUubWFlPic=

> <r_epik_Ionization_Penalty>
  0.5221

> <r_epik_Ionization_Penalty_Charging>
  0.1146

> <r_epik_Ionization_Penalty_Neutral>
  0.4074

> <r_epik_State_Penalty>
  0.0009

> <r_epik_Charging_Adjusted_Penalty>
0.115568

> <i_epik_Tot_Q>
0

> <i_epik_Tot_abs_Q>
0

> <s_lp_Force_Field>
S-OPLS

> <r_lp_Energy>
50.9868

> <b_lp_Chiralities_Consistent>
1

> <s_lp_Variant>
O=C(N)C1=CC(N=C(NC(C2=CC(C)=NN2CC)=O)N3C/C=C/CN4C(NC(C5=CC(C)=NN5CC)=O)=NC6=C...-1

> <s_i_glide_gridfile>
glide-grid_1

> <i_i_glide_lignum>
89

> <i_i_glide_rotatable_bonds>
18

> <r_i_docking_score>
-8.10744872214724

> <r_i_glide_ligand_efficiency>
-0.130765301970117

> <r_i_glide_ligand_efficiency_sa>
-0.517554890792843

> <r_i_glide_ligand_efficiency_ln>
-1.58128266460017

> <r_i_glide_gscore>
-8.10834872214724

> <r_i_glide_lipo>
-2.21636829110889

> <r_i_glide_hbond>
-0.669630956522297

> <r_i_glide_metal>
0

> <r_i_glide_rewards>
-0.762068458285235

> <r_i_glide_evdw>
-61.791431427002

> <r_i_glide_ecoul>
-8.86489582061768

> <r_i_glide_erotb>
0.151762100387856

> <r_i_glide_esite>
-0.192737172175921

> <r_i_glide_emodel>
-99.914967598457

> <r_i_glide_energy>
-70.6563272476196

> <r_i_glide_einternal>
12.5071773529053

> <i_i_glide_confnum>
530

> <i_i_glide_posenum>
259

> <r_i_glide_eff_state_penalty>
0.0009

> <s_m_subgroup_title>
glide-dock_SP_top1262_2_pv

> <s_m_subgroupid>
glide-dock_SP_top1262_2_pv

> <b_m_subgroup_collapsed>
0

$$$$
NC1=CC(NC2=NC=CC(C3=CN(C)C4=C3C=CC=C4)=N2)=C(OC)C=C1N(CCN(C)C)C
                    3D
 Schrodinger Suite 2021-3.
  0  0  0     0  0            999 V3000
M  V30 BEGIN CTAB
M  V30 COUNTS 65 68 0 0 0
M  V30 BEGIN ATOM
M  V30 1 C  33.7924 33.2953 81.4929 0
M  V30 2 N  33.1712 33.9541 82.7440 0 CHG=1
M  V30 3 C  33.9923 33.6371 84.0156 0
M  V30 4 C  32.9259 35.4669 82.5333 0
M  V30 5 C  32.0089 36.0171 83.6430 0
M  V30 6 N  31.3091 37.2459 83.2625 0
M  V30 7 C  32.0855 38.4828 83.3374 0
M  V30 8 C  29.9183 37.2805 83.5501 0
M  V30 9 C  29.3967 38.2250 84.4455 0
M  V30 10 C  28.0354 38.2429 84.7925 0
M  V30 11 O  27.5031 39.1164 85.7284 0
M  V30 12 C  28.3535 40.0483 86.3935 0
M  V30 13 C  27.1603 37.3216 84.1855 0
M  V30 14 C  27.6634 36.4160 83.2447 0
M  V30 15 C  29.0214 36.3705 82.9531 0
M  V30 16 N  29.4329 35.4011 82.0427 0
M  V30 17 N  25.8129 37.3222 84.5999 0
M  V30 18 C  24.6494 36.6703 84.1715 0
M  V30 19 N  24.6609 35.9342 83.0290 0
M  V30 20 C  23.4793 35.4179 82.6174 0
M  V30 21 C  22.2873 35.6411 83.3048 0
M  V30 22 C  22.3669 36.3979 84.4755 0
M  V30 23 N  23.5442 36.9064 84.9308 0
M  V30 24 C  21.1568 36.6870 85.2883 0
M  V30 25 C  20.9209 36.3144 86.5963 0
M  V30 26 N  19.6385 36.6593 86.9605 0
M  V30 27 C  18.9658 36.2802 88.1758 0
M  V30 28 C  19.9537 37.3375 84.8491 0
M  V30 29 C  19.0250 37.3255 85.9266 0
M  V30 30 C  19.5453 37.9120 83.6435 0
M  V30 31 C  18.2357 38.3581 83.5020 0
M  V30 32 C  17.3644 38.3642 84.5788 0
M  V30 33 C  17.7355 37.8673 85.8223 0
M  V30 34 H  34.7844 33.7252 81.3403 0
M  V30 35 H  33.1365 33.4970 80.6418 0
M  V30 36 H  33.8496 32.2218 81.6791 0
M  V30 37 H  34.9732 34.1071 83.9223 0
M  V30 38 H  33.4521 34.0299 84.8787 0
M  V30 39 H  34.0853 32.5530 84.1012 0
M  V30 40 H  33.8978 35.9612 82.4928 0
M  V30 41 H  32.4473 35.5534 81.5547 0
M  V30 42 H  31.2870 35.2517 83.9284 0
M  V30 43 H  32.5874 36.1979 84.5515 0
M  V30 44 H  31.5328 39.3149 82.8981 0
M  V30 45 H  32.3147 38.7404 84.3723 0
M  V30 46 H  33.0215 38.3885 82.7857 0
M  V30 47 H  30.0759 38.9204 84.9130 0
M  V30 48 H  27.7658 40.6297 87.1021 0
M  V30 49 H  29.1378 39.5425 86.9585 0
M  V30 50 H  28.8081 40.7465 85.6903 0
M  V30 51 H  27.0267 35.6862 82.7732 0
M  V30 52 H  28.7224 34.9985 81.4435 0
M  V30 53 H  30.3740 35.4716 81.6848 0
M  V30 54 H  25.6466 37.9465 85.3752 0
M  V30 55 H  23.4855 34.8279 81.7091 0
M  V30 56 H  21.3586 35.2244 82.9446 0
M  V30 57 H  21.5458 35.7611 87.2824 0
M  V30 58 H  18.1800 35.5625 87.9427 0
M  V30 59 H  19.6816 35.8258 88.8427 0
M  V30 60 H  18.5118 37.1622 88.6183 0
M  V30 61 H  20.2250 37.9565 82.8132 0
M  V30 62 H  17.9045 38.7438 82.5476 0
M  V30 63 H  16.3675 38.7555 84.4468 0
M  V30 64 H  17.0361 37.8617 86.6462 0
M  V30 65 H  32.2534 33.5392 82.8713 0
M  V30 END ATOM
M  V30 BEGIN BOND
M  V30 1 1 1 2
M  V30 2 1 1 34
M  V30 3 1 1 35
M  V30 4 1 1 36
M  V30 5 1 2 3
M  V30 6 1 2 4
M  V30 7 1 2 65
M  V30 8 1 3 37
M  V30 9 1 3 38
M  V30 10 1 3 39
M  V30 11 1 4 5
M  V30 12 1 4 40
M  V30 13 1 4 41
M  V30 14 1 5 6
M  V30 15 1 5 42
M  V30 16 1 5 43
M  V30 17 1 6 7
M  V30 18 1 6 8
M  V30 19 1 7 44
M  V30 20 1 7 45
M  V30 21 1 7 46
M  V30 22 2 8 9
M  V30 23 1 8 15
M  V30 24 1 9 10
M  V30 25 1 9 47
M  V30 26 1 10 11
M  V30 27 2 10 13
M  V30 28 1 11 12
M  V30 29 1 12 48
M  V30 30 1 12 49
M  V30 31 1 12 50
M  V30 32 1 13 14
M  V30 33 1 13 17
M  V30 34 2 14 15
M  V30 35 1 14 51
M  V30 36 1 15 16
M  V30 37 1 16 52
M  V30 38 1 16 53
M  V30 39 1 17 18
M  V30 40 1 17 54
M  V30 41 2 18 19
M  V30 42 1 18 23
M  V30 43 1 19 20
M  V30 44 2 20 21
M  V30 45 1 20 55
M  V30 46 1 21 22
M  V30 47 1 21 56
M  V30 48 2 22 23
M  V30 49 1 22 24
M  V30 50 2 24 25
M  V30 51 1 24 28
M  V30 52 1 25 26
M  V30 53 1 25 57
M  V30 54 1 26 27
M  V30 55 1 26 29
M  V30 56 1 27 58
M  V30 57 1 27 59
M  V30 58 1 27 60
M  V30 59 2 28 29
M  V30 60 1 28 30
M  V30 61 1 29 33
M  V30 62 2 30 31
M  V30 63 1 30 61
M  V30 64 1 31 32
M  V30 65 1 31 62
M  V30 66 2 32 33
M  V30 67 1 32 63
M  V30 68 1 33 64
M  V30 END BOND
M  V30 END CTAB
M  END
> <s_m_entry_id>
448

> <s_m_entry_name>
result.2874

> <s_m_Source_Path>
D:\OneDrive - zju.edu.cn\DOC\A-Finished\LCK_VS\Planet\LCK-8617

> <s_m_Source_File>
glide-dock_SP_top1262_2_pv.maegz

> <i_m_Source_File_Index>
448

> <PLANET_affinity>
9.075

> <i_lp_mmshare_version>
54117

> <i_f3d_flags>
0

> <s_epik_input>
W0NIM11OKFtDSDNdKVtDSDJdW0NIMl1OKFtDSDNdKWMxW2NIXWMoT1tDSDNdKWMoW2NIXWMxW05IMl0pW05IXWMybltjSF1bY0hdYyhuMiktYzNbY0hdbihbQ0gzXSljKGMzNClbY0hdW2NIXVtjSF1bY0hdNA==

> <s_epik_cmdline>
J2VwaWtfcHl0aG9uJywgJy1waCcsICc3LjAnLCAnLXRuJywgJzgnLCAnLW1hJywgJzUwMCcsICctaW1hZScsICc8aW5maWxlLm1hZT4nLCAnLW9tYWUnLCAnPG91dGZpbGUubWFlPic=

> <r_epik_Ionization_Penalty>
  0.0403

> <r_epik_Ionization_Penalty_Charging>
  0.0038

> <r_epik_Ionization_Penalty_Neutral>
  0.0365

> <r_epik_State_Penalty>
  0.0631

> <r_epik_Charging_Adjusted_Penalty>
0.0668744

> <i_epik_Tot_Q>
1

> <i_epik_Tot_abs_Q>
1

> <s_lp_Force_Field>
S-OPLS

> <r_lp_Energy>
79.1954

> <b_lp_Chiralities_Consistent>
1

> <s_lp_Variant>
NC1=CC(NC2=NC=CC(C3=CN(C)C4=C3C=CC=C4)=N2)=C(OC)C=C1N(CCN(C)C)C-1

> <s_i_glide_gridfile>
glide-grid_1

> <i_i_glide_lignum>
489

> <i_i_glide_rotatable_bonds>
8

> <r_i_docking_score>
-8.10552524138443

> <r_i_glide_ligand_efficiency>
-0.245621977011649

> <r_i_glide_ligand_efficiency_sa>
-0.787840922548081

> <r_i_glide_ligand_efficiency_ln>
-1.80262684552029

> <r_i_glide_gscore>
-8.16862524138443

> <r_i_glide_lipo>
-3.6650666374013

> <r_i_glide_hbond>
-0.312077658767421

> <r_i_glide_metal>
0

> <r_i_glide_rewards>
-1.37247554354778

> <r_i_glide_evdw>
-45.5806884765625

> <r_i_glide_ecoul>
-7.61488914489746

> <r_i_glide_erotb>
0.602262393894816

> <r_i_glide_esite>
0

> <r_i_glide_emodel>
-78.2714443520711

> <r_i_glide_energy>
-53.19557762146

> <r_i_glide_einternal>
12.1118125915527

> <i_i_glide_confnum>
18

> <i_i_glide_posenum>
326

> <r_i_glide_eff_state_penalty>
0.0631

> <r_lp_tautomer_probability>
1

> <s_m_subgroup_title>
glide-dock_SP_top1262_2_pv

> <s_m_subgroupid>
glide-dock_SP_top1262_2_pv

> <b_m_subgroup_collapsed>
0

$$$$
OC(C1=CC=NC=C1)C2=NC3=CC=C(C4=CN(C)N=C4)C=C3N2CC5=CC(C)=CC=C5C
                    3D
 Schrodinger Suite 2021-3.
  0  0  0     0  0            999 V3000
M  V30 BEGIN CTAB
M  V30 COUNTS 57 61 0 0 0
M  V30 BEGIN ATOM
M  V30 1 C  19.4985 37.7809 84.1244 0
M  V30 2 C  18.3567 38.3085 83.5197 0
M  V30 3 N  17.2857 38.7559 84.2194 0
M  V30 4 C  17.3331 38.6476 85.5695 0
M  V30 5 C  18.4246 38.1064 86.2516 0
M  V30 6 C  19.5399 37.6652 85.5235 0
M  V30 7 C  20.7507 37.1060 86.2880 0 CFG=1
M  V30 8 O  20.4283 35.9564 87.0499 0
M  V30 9 C  22.0263 36.8153 85.4840 0
M  V30 10 N  22.0833 35.9567 84.4904 0
M  V30 11 N  23.2531 37.4040 85.7546 0
M  V30 12 C  24.1460 36.9053 84.8251 0
M  V30 13 C  23.3741 36.0134 84.0430 0
M  V30 14 C  25.5055 37.1293 84.5766 0
M  V30 15 C  26.0881 36.4233 83.5152 0
M  V30 16 C  25.3251 35.5562 82.7255 0
M  V30 17 C  23.9664 35.3387 82.9672 0
M  V30 18 C  27.5497 36.5782 83.2436 0
M  V30 19 C  28.3970 35.7210 82.5528 0
M  V30 20 N  29.6489 36.2689 82.6164 0
M  V30 21 C  30.8783 35.7574 82.0431 0
M  V30 22 N  29.6649 37.4281 83.2796 0
M  V30 23 C  28.4178 37.6077 83.6528 0
M  V30 24 C  23.5380 38.4275 86.7628 0
M  V30 25 C  23.1449 39.8634 86.3848 0
M  V30 26 C  22.8554 40.2026 85.0530 0
M  V30 27 C  22.4909 41.5037 84.7049 0
M  V30 28 C  22.1781 41.8528 83.2639 0
M  V30 29 C  22.4033 42.4839 85.6928 0
M  V30 30 C  22.6886 42.1646 87.0181 0
M  V30 31 C  23.0620 40.8635 87.3735 0
M  V30 32 C  23.3795 40.5700 88.8336 0
M  V30 33 H  20.3226 37.4748 83.5005 0
M  V30 34 H  18.2923 38.3752 82.4435 0
M  V30 35 H  16.4670 39.0057 86.1067 0
M  V30 36 H  18.4053 38.0420 87.3302 0
M  V30 37 H  20.9528 37.8770 87.0300 0
M  V30 38 H  20.3564 35.2069 86.4515 0
M  V30 39 H  26.0857 37.8027 85.1889 0
M  V30 40 H  25.8056 35.0447 81.9065 0
M  V30 41 H  23.3847 34.6665 82.3527 0
M  V30 42 H  28.2300 34.7826 82.0435 0
M  V30 43 H  30.7128 34.7569 81.6433 0
M  V30 44 H  31.2030 36.4155 81.2366 0
M  V30 45 H  31.6501 35.7085 82.8118 0
M  V30 46 H  28.1373 38.4789 84.2260 0
M  V30 47 H  23.0295 38.1255 87.6775 0
M  V30 48 H  24.6036 38.4053 86.9942 0
M  V30 49 H  22.9140 39.4592 84.2718 0
M  V30 50 H  22.0833 40.9631 82.6418 0
M  V30 51 H  21.2352 42.3985 83.2138 0
M  V30 52 H  22.9616 42.4898 82.8539 0
M  V30 53 H  22.1099 43.4943 85.4375 0
M  V30 54 H  22.6145 42.9404 87.7669 0
M  V30 55 H  23.4850 41.4838 89.4204 0
M  V30 56 H  22.5954 39.9555 89.2767 0
M  V30 57 H  24.3219 40.0279 88.9174 0
M  V30 END ATOM
M  V30 BEGIN BOND
M  V30 1 2 1 2
M  V30 2 1 1 6
M  V30 3 1 1 33
M  V30 4 1 2 3
M  V30 5 1 2 34
M  V30 6 2 3 4
M  V30 7 1 4 5
M  V30 8 1 4 35
M  V30 9 2 5 6
M  V30 10 1 5 36
M  V30 11 1 6 7
M  V30 12 1 7 8
M  V30 13 1 7 9
M  V30 14 1 7 37
M  V30 15 1 8 38
M  V30 16 2 9 10
M  V30 17 1 9 11
M  V30 18 1 10 13
M  V30 19 1 11 12
M  V30 20 1 11 24
M  V30 21 2 12 13
M  V30 22 1 12 14
M  V30 23 1 13 17
M  V30 24 2 14 15
M  V30 25 1 14 39
M  V30 26 1 15 16
M  V30 27 1 15 18
M  V30 28 2 16 17
M  V30 29 1 16 40
M  V30 30 1 17 41
M  V30 31 2 18 19
M  V30 32 1 18 23
M  V30 33 1 19 20
M  V30 34 1 19 42
M  V30 35 1 20 21
M  V30 36 1 20 22
M  V30 37 1 21 43
M  V30 38 1 21 44
M  V30 39 1 21 45
M  V30 40 2 22 23
M  V30 41 1 23 46
M  V30 42 1 24 25
M  V30 43 1 24 47
M  V30 44 1 24 48
M  V30 45 2 25 26
M  V30 46 1 25 31
M  V30 47 1 26 27
M  V30 48 1 26 49
M  V30 49 1 27 28
M  V30 50 2 27 29
M  V30 51 1 28 50
M  V30 52 1 28 51
M  V30 53 1 28 52
M  V30 54 1 29 30
M  V30 55 1 29 53
M  V30 56 2 30 31
M  V30 57 1 30 54
M  V30 58 1 31 32
M  V30 59 1 32 55
M  V30 60 1 32 56
M  V30 61 1 32 57
M  V30 END BOND
M  V30 END CTAB
M  END
> <s_m_entry_id>
449

> <s_m_entry_name>
result.7179

> <s_m_Source_Path>
D:\OneDrive - zju.edu.cn\DOC\A-Finished\LCK_VS\Planet\LCK-8617

> <s_m_Source_File>
glide-dock_SP_top1262_2_pv.maegz

> <i_m_Source_File_Index>
449

> <PLANET_affinity>
7.246

> <i_lp_mmshare_version>
54117

> <i_f3d_flags>
0

> <s_epik_input>
W0NIM11jMVtjSF1bY0hdYyhbQ0gzXSlbY0hdYzFbQ0gyXW4yYyhbQ0BIXShbT0hdKWMzW2NIXVtjSF1uW2NIXVtjSF0zKW5jKGMyNClbY0hdW2NIXWMoW2NIXTQpLWM1W2NIXW4oW0NIM10pbltjSF01

> <s_epik_cmdline>
J2VwaWtfcHl0aG9uJywgJy1waCcsICc3LjAnLCAnLXRuJywgJzgnLCAnLW1hJywgJzUwMCcsICctaW1hZScsICc8aW5maWxlLm1hZT4nLCAnLW9tYWUnLCAnPG91dGZpbGUubWFlPic=

> <r_epik_Ionization_Penalty>
  0.0282

> <r_epik_Ionization_Penalty_Charging>
  0.0000

> <r_epik_Ionization_Penalty_Neutral>
  0.0282

> <r_epik_State_Penalty>
  0.0220

> <r_epik_Charging_Adjusted_Penalty>
0.0220078

> <i_epik_Tot_Q>
0

> <i_epik_Tot_abs_Q>
0

> <s_lp_Force_Field>
S-OPLS

> <r_lp_Energy>
33.4041

> <b_lp_Chiralities_Consistent>
1

> <s_lp_Variant>
OC(C1=CC=NC=C1)C2=NC3=CC=C(C4=CN(C)N=C4)C=C3N2CC5=CC(C)=CC=C5C-1

> <s_i_glide_gridfile>
glide-grid_1

> <i_i_glide_lignum>
2322

> <i_i_glide_rotatable_bonds>
6

> <r_i_docking_score>
-8.10196768004379

> <r_i_glide_ligand_efficiency>
-0.253186490001368

> <r_i_glide_ligand_efficiency_sa>
-0.803817000216011

> <r_i_glide_ligand_efficiency_ln>
-1.81425141485962

> <r_i_glide_gscore>
-8.12396768004379

> <r_i_glide_lipo>
-3.59011951545755

> <r_i_glide_hbond>
-0.298392267696128

> <r_i_glide_metal>
0

> <r_i_glide_rewards>
-1.43453290381968

> <r_i_glide_evdw>
-53.3322105407715

> <r_i_glide_ecoul>
-4.57888460159302

> <r_i_glide_erotb>
0.552520224207095

> <r_i_glide_esite>
0

> <r_i_glide_emodel>
-84.6730633515513

> <r_i_glide_energy>
-57.9110951423645

> <r_i_glide_einternal>
1.58378648757935

> <i_i_glide_confnum>
8

> <i_i_glide_posenum>
388

> <r_i_glide_eff_state_penalty>
0.022

> <r_lp_tautomer_probability>
1

> <s_m_subgroup_title>
glide-dock_SP_top1262_2_pv

> <s_m_subgroupid>
glide-dock_SP_top1262_2_pv

> <b_m_subgroup_collapsed>
0

$$$$
O=C(N1CCN(C2=CC=CC=C2)CC1)[C@H](CC3=CC=C(C=C3)OS(=O)(C4=CC=CC5=C4C=CN=C5)=O)N...
                    3D
 Schrodinger Suite 2021-3.
  0  0  0     0  0            999 V3000
M  V30 BEGIN CTAB
M  V30 COUNTS 86 92 0 0 0
M  V30 BEGIN ATOM
M  V30 1 C  30.8598 41.9566 89.2217 0
M  V30 2 C  32.1536 41.6023 89.5944 0
M  V30 3 C  33.0502 42.5889 89.9938 0
M  V30 4 C  32.6612 43.9244 90.0161 0
M  V30 5 C  31.3686 44.2755 89.6333 0
M  V30 6 C  30.4452 43.2991 89.2278 0
M  V30 7 N  29.1421 43.6634 88.8834 0
M  V30 8 C  28.8797 44.8484 88.0467 0
M  V30 9 C  27.4615 45.4569 88.1403 0
M  V30 10 C  28.0625 42.6747 88.7560 0
M  V30 11 C  26.6325 43.2273 88.9053 0
M  V30 12 N  26.4407 44.4017 88.0437 0
M  V30 13 C  25.2573 44.6605 87.4097 0
M  V30 14 O  25.0601 45.7243 86.8136 0
M  V30 15 C  24.1522 43.5628 87.3363 0 CFG=1
M  V30 16 N  23.5768 43.3593 88.7132 0 CFG=1
M  V30 17 C  22.8776 44.4918 89.3699 0
M  V30 18 S  23.1709 41.7146 89.2635 0
M  V30 19 O  21.7422 41.6565 89.5979 0
M  V30 20 O  23.7197 40.7560 88.2974 0
M  V30 21 C  24.0992 41.4693 90.7916 0
M  V30 22 C  25.2822 40.7290 90.7037 0
M  V30 23 C  25.9990 40.3597 91.8338 0
M  V30 24 C  25.5648 40.7315 93.0954 0
M  V30 25 C  23.6463 41.9050 92.0812 0
M  V30 26 C  24.4045 41.5206 93.2355 0
M  V30 27 C  22.4894 42.7089 92.3075 0
M  V30 28 C  22.1672 43.1057 93.6040 0
M  V30 29 N  22.8859 42.7508 94.6937 0
M  V30 30 C  23.9525 41.9568 94.4959 0
M  V30 31 C  23.0479 43.7624 86.2565 0
M  V30 32 C  22.4197 42.4531 85.8012 0
M  V30 33 C  21.2836 41.9589 86.4452 0
M  V30 34 C  20.7172 40.7561 86.0395 0
M  V30 35 C  21.3013 40.0371 84.9999 0
M  V30 36 C  22.4313 40.5313 84.3489 0
M  V30 37 C  22.9926 41.7389 84.7473 0
M  V30 38 O  20.7741 38.8395 84.6025 0
M  V30 39 S  21.0254 37.5042 85.5771 0
M  V30 40 O  20.6721 37.8457 86.9600 0
M  V30 41 O  20.3931 36.3569 84.9246 0
M  V30 42 C  22.8294 37.3864 85.4576 0
M  V30 43 C  23.5529 38.0734 86.4367 0
M  V30 44 C  24.9422 38.0954 86.4438 0
M  V30 45 C  25.6608 37.3984 85.4839 0
M  V30 46 C  23.5442 36.6489 84.4530 0
M  V30 47 C  24.9786 36.6631 84.4903 0
M  V30 48 C  22.9365 35.9112 83.3950 0
M  V30 49 C  23.7350 35.2402 82.4686 0
M  V30 50 N  25.0847 35.2294 82.5095 0
M  V30 51 C  25.6757 35.9315 83.4983 0
M  V30 52 H  30.1973 41.1641 88.9048 0
M  V30 53 H  32.4568 40.5645 89.5737 0
M  V30 54 H  34.0552 42.3147 90.2847 0
M  V30 55 H  33.3603 44.6852 90.3319 0
M  V30 56 H  31.0896 45.3140 89.6861 0
M  V30 57 H  29.6201 45.6320 88.1960 0
M  V30 58 H  28.9994 44.4926 87.0225 0
M  V30 59 H  27.3764 45.9355 89.1173 0
M  V30 60 H  27.3628 46.2195 87.3656 0
M  V30 61 H  28.1531 42.2639 87.7475 0
M  V30 62 H  28.1980 41.8586 89.4677 0
M  V30 63 H  25.9613 42.4056 88.6793 0
M  V30 64 H  26.4975 43.5257 89.9465 0
M  V30 65 H  24.6997 42.6680 87.0464 0
M  V30 66 H  23.1398 45.4390 88.8946 0
M  V30 67 H  21.7998 44.3705 89.2586 0
M  V30 68 H  23.1490 44.5432 90.4230 0
M  V30 69 H  25.6430 40.3802 89.7458 0
M  V30 70 H  26.8800 39.7494 91.7282 0
M  V30 71 H  26.1096 40.4254 93.9771 0
M  V30 72 H  21.8712 43.0477 91.4931 0
M  V30 73 H  21.3044 43.7299 93.7828 0
M  V30 74 H  24.4837 41.6517 95.3860 0
M  V30 75 H  22.2642 44.4377 86.6077 0
M  V30 76 H  23.4514 44.2594 85.3722 0
M  V30 77 H  20.8274 42.5217 87.2453 0
M  V30 78 H  19.8316 40.3841 86.5326 0
M  V30 79 H  22.8802 39.9620 83.5521 0
M  V30 80 H  23.8716 42.1177 84.2441 0
M  V30 81 H  23.0306 38.6284 87.2028 0
M  V30 82 H  25.4610 38.6557 87.2068 0
M  V30 83 H  26.7412 37.4135 85.4966 0
M  V30 84 H  21.8720 35.8778 83.2548 0
M  V30 85 H  23.2831 34.7077 81.6458 0
M  V30 86 H  26.7567 35.9220 83.4967 0
M  V30 END ATOM
M  V30 BEGIN BOND
M  V30 1 2 1 2
M  V30 2 1 1 6
M  V30 3 1 1 52
M  V30 4 1 2 3
M  V30 5 1 2 53
M  V30 6 2 3 4
M  V30 7 1 3 54
M  V30 8 1 4 5
M  V30 9 1 4 55
M  V30 10 2 5 6
M  V30 11 1 5 56
M  V30 12 1 6 7
M  V30 13 1 7 8
M  V30 14 1 7 10
M  V30 15 1 8 9
M  V30 16 1 8 57
M  V30 17 1 8 58
M  V30 18 1 9 12
M  V30 19 1 9 59
M  V30 20 1 9 60
M  V30 21 1 10 11
M  V30 22 1 10 61
M  V30 23 1 10 62
M  V30 24 1 11 12
M  V30 25 1 11 63
M  V30 26 1 11 64
M  V30 27 1 12 13
M  V30 28 2 13 14
M  V30 29 1 13 15
M  V30 30 1 15 16
M  V30 31 1 15 31
M  V30 32 1 15 65
M  V30 33 1 16 17
M  V30 34 1 16 18
M  V30 35 1 17 66
M  V30 36 1 17 67
M  V30 37 1 17 68
M  V30 38 2 18 19
M  V30 39 2 18 20
M  V30 40 1 18 21
M  V30 41 2 21 22
M  V30 42 1 21 25
M  V30 43 1 22 23
M  V30 44 1 22 69
M  V30 45 2 23 24
M  V30 46 1 23 70
M  V30 47 1 24 26
M  V30 48 1 24 71
M  V30 49 2 25 26
M  V30 50 1 25 27
M  V30 51 1 26 30
M  V30 52 2 27 28
M  V30 53 1 27 72
M  V30 54 1 28 29
M  V30 55 1 28 73
M  V30 56 2 29 30
M  V30 57 1 30 74
M  V30 58 1 31 32
M  V30 59 1 31 75
M  V30 60 1 31 76
M  V30 61 2 32 33
M  V30 62 1 32 37
M  V30 63 1 33 34
M  V30 64 1 33 77
M  V30 65 2 34 35
M  V30 66 1 34 78
M  V30 67 1 35 36
M  V30 68 1 35 38
M  V30 69 2 36 37
M  V30 70 1 36 79
M  V30 71 1 37 80
M  V30 72 1 38 39
M  V30 73 2 39 40
M  V30 74 2 39 41
M  V30 75 1 39 42
M  V30 76 2 42 43
M  V30 77 1 42 46
M  V30 78 1 43 44
M  V30 79 1 43 81
M  V30 80 2 44 45
M  V30 81 1 44 82
M  V30 82 1 45 47
M  V30 83 1 45 83
M  V30 84 2 46 47
M  V30 85 1 46 48
M  V30 86 1 47 51
M  V30 87 2 48 49
M  V30 88 1 48 84
M  V30 89 1 49 50
M  V30 90 1 49 85
M  V30 91 2 50 51
M  V30 92 1 51 86
M  V30 END BOND
M  V30 END CTAB
M  END
> <s_m_entry_id>
454

> <s_m_entry_name>
result.8106

> <s_m_Source_Path>
D:\OneDrive - zju.edu.cn\DOC\A-Finished\LCK_VS\Planet\LCK-8617

> <s_m_Source_File>
glide-dock_SP_top1262_2_pv.maegz

> <i_m_Source_File_Index>
454

> <PLANET_affinity>
8.911

> <i_lp_mmshare_version>
54117

> <i_f3d_flags>
0

> <s_epik_input>
W2NIXTFbY0hdW2NIXVtjSF1bY0hdYzFOMltDSDJdW0NIMl1OKFtDSDJdW0NIMl0yKUMoPU8pW0NAQEhdKE4oW0NIM10pUyg9TykoPU8pYzNbY0hdW2NIXVtjSF1jKGMzNClbY0hdbltjSF1bY0hdNClbQ0gyXWM1W2NIXVtjSF1jKFtjSF1bY0hdNSlPUyg9TykoPU8pYzZbY0hdW2NIXVtjSF1jKGM2NylbY0hdbltjSF1bY0hdNw==

> <s_epik_cmdline>
J2VwaWtfcHl0aG9uJywgJy1waCcsICc3LjAnLCAnLXRuJywgJzgnLCAnLW1hJywgJzUwMCcsICctaW1hZScsICc8aW5maWxlLm1hZT4nLCAnLW9tYWUnLCAnPG91dGZpbGUubWFlPic=

> <r_epik_Ionization_Penalty>
  0.0099

> <r_epik_Ionization_Penalty_Charging>
  0.0000

> <r_epik_Ionization_Penalty_Neutral>
  0.0099

> <r_epik_State_Penalty>
  0.0066

> <r_epik_Charging_Adjusted_Penalty>
0.00664854

> <i_epik_Tot_Q>
0

> <i_epik_Tot_abs_Q>
0

> <s_lp_Force_Field>
S-OPLS

> <r_lp_Energy>
98.5282

> <b_lp_Chiralities_Consistent>
1

> <s_lp_Variant>
O=C(N1CCN(C2=CC=CC=C2)CC1)[C@H](CC3=CC=C(C=C3)OS(=O)(C4=CC=CC5=C4C=CN=C5)=O)N...-1

> <s_i_glide_gridfile>
glide-grid_1

> <i_i_glide_lignum>
544

> <i_i_glide_rotatable_bonds>
11

> <r_i_docking_score>
-8.08905517993968

> <r_i_glide_ligand_efficiency>
-0.158608925096857

> <r_i_glide_ligand_efficiency_sa>
-0.588190058729607

> <r_i_glide_ligand_efficiency_ln>
-1.6401746092291

> <r_i_glide_gscore>
-8.09565517993968

> <r_i_glide_lipo>
-3.40174368434336

> <r_i_glide_hbond>
-0.232854981484141

> <r_i_glide_metal>
0

> <r_i_glide_rewards>
-0.849388049146711

> <r_i_glide_evdw>
-51.2924766540527

> <r_i_glide_ecoul>
-8.03335285186768

> <r_i_glide_erotb>
0.229744600429821

> <r_i_glide_esite>
-0.0717863049125067

> <r_i_glide_emodel>
-88.8353274262643

> <r_i_glide_energy>
-59.3258295059204

> <r_i_glide_einternal>
9.75292587280273

> <i_i_glide_confnum>
534

> <i_i_glide_posenum>
235

> <r_i_glide_eff_state_penalty>
0.0066

> <s_m_subgroup_title>
glide-dock_SP_top1262_2_pv

> <s_m_subgroupid>
glide-dock_SP_top1262_2_pv

> <b_m_subgroup_collapsed>
0

$$$$
O=C(NC1=NNC2=C1C=C(CC3=CC(F)=CC(F)=C3)C=C2)C4=C(NC5CCOCC5)C=C(N6CCN(C)CC6)C=C4
                    3D
 Schrodinger Suite 2021-3.
  0  0  0     0  0            999 V3000
M  V30 BEGIN CTAB
M  V30 COUNTS 76 81 0 0 0
M  V30 BEGIN ATOM
M  V30 1 C  33.6071 36.6828 84.2994 0
M  V30 2 C  34.2762 35.3698 84.7788 0
M  V30 3 N  35.0574 34.7422 83.6040 0 CHG=1
M  V30 4 C  35.7448 33.4278 84.0373 0
M  V30 5 C  34.0691 34.4907 82.4462 0
M  V30 6 C  33.4718 35.8523 82.0341 0
M  V30 7 N  32.7236 36.5006 83.1267 0
M  V30 8 C  31.3328 36.6076 83.1788 0
M  V30 9 C  30.5089 35.7957 82.3946 0
M  V30 10 C  29.1285 35.9263 82.4337 0
M  V30 11 C  30.7219 37.5575 84.0058 0
M  V30 12 C  29.3272 37.7114 84.0577 0
M  V30 13 N  28.7301 38.6481 84.9306 0
M  V30 14 C  29.4548 39.6031 85.7655 0
M  V30 15 C  29.7771 40.8594 84.9291 0
M  V30 16 C  30.2927 41.9982 85.8278 0
M  V30 17 O  29.3568 42.2518 86.8795 0
M  V30 18 C  29.1539 41.1428 87.7535 0
M  V30 19 C  28.5563 39.9636 86.9652 0
M  V30 20 C  28.5135 36.8853 83.2480 0
M  V30 21 C  27.0063 37.0096 83.2433 0
M  V30 22 O  26.4786 38.1280 83.2498 0
M  V30 23 N  26.3238 35.8482 83.2107 0
M  V30 24 C  24.9474 35.7683 83.2966 0
M  V30 25 N  24.2492 35.0224 82.4848 0
M  V30 26 N  22.9583 35.1566 82.8357 0
M  V30 27 C  24.1065 36.4198 84.2580 0
M  V30 28 C  22.7932 36.0146 83.9018 0
M  V30 29 C  24.2825 37.2904 85.3451 0
M  V30 30 C  23.1539 37.7680 86.0144 0
M  V30 31 C  21.8744 37.3554 85.6383 0
M  V30 32 C  21.6593 36.4770 84.5749 0
M  V30 33 C  23.3192 38.7796 87.1414 0
M  V30 34 C  22.9112 40.2116 86.7903 0
M  V30 35 C  22.5400 41.0898 87.8135 0
M  V30 36 C  22.1312 42.3883 87.5172 0
M  V30 37 F  21.7756 43.2210 88.5204 0
M  V30 38 C  22.0850 42.8231 86.1919 0
M  V30 39 C  22.4550 41.9591 85.1637 0
M  V30 40 F  22.3982 42.3601 83.8756 0
M  V30 41 C  22.8721 40.6639 85.4615 0
M  V30 42 H  33.0448 37.0705 85.1482 0
M  V30 43 H  34.3516 37.4494 84.0742 0
M  V30 44 H  34.9969 35.5554 85.5766 0
M  V30 45 H  33.5486 34.6347 85.1311 0
M  V30 46 H  34.9721 32.7380 84.3788 0
M  V30 47 H  36.2732 33.0282 83.1695 0
M  V30 48 H  36.4488 33.6657 84.8394 0
M  V30 49 H  34.6317 34.0348 81.6295 0
M  V30 50 H  33.3077 33.7875 82.7946 0
M  V30 51 H  34.2525 36.5314 81.6913 0
M  V30 52 H  32.8378 35.7129 81.1590 0
M  V30 53 H  30.9194 35.0351 81.7488 0
M  V30 54 H  28.5470 35.2754 81.7980 0
M  V30 55 H  31.3497 38.2108 84.5880 0
M  V30 56 H  27.7880 38.9202 84.6786 0
M  V30 57 H  30.3767 39.1589 86.1406 0
M  V30 58 H  30.5239 40.6345 84.1673 0
M  V30 59 H  28.8909 41.2102 84.3966 0
M  V30 60 H  31.2753 41.7592 86.2419 0
M  V30 61 H  30.4186 42.9109 85.2441 0
M  V30 62 H  30.0957 40.8582 88.2260 0
M  V30 63 H  28.4819 41.4407 88.5577 0
M  V30 64 H  27.5489 40.2259 86.6359 0
M  V30 65 H  28.4527 39.1022 87.6265 0
M  V30 66 H  26.8214 35.0039 82.9744 0
M  V30 67 H  22.2502 34.6089 82.3493 0
M  V30 68 H  25.2718 37.6208 85.6258 0
M  V30 69 H  21.0203 37.7512 86.1696 0
M  V30 70 H  20.6600 36.2051 84.2772 0
M  V30 71 H  22.7280 38.4331 87.9903 0
M  V30 72 H  24.3548 38.7965 87.4842 0
M  V30 73 H  22.5662 40.7709 88.8451 0
M  V30 74 H  21.7502 43.8262 85.9618 0
M  V30 75 H  23.1533 40.0143 84.6452 0
M  V30 76 H  35.7543 35.4045 83.2927 0
M  V30 END ATOM
M  V30 BEGIN BOND
M  V30 1 1 1 2
M  V30 2 1 1 7
M  V30 3 1 1 42
M  V30 4 1 1 43
M  V30 5 1 2 3
M  V30 6 1 2 44
M  V30 7 1 2 45
M  V30 8 1 3 4
M  V30 9 1 3 5
M  V30 10 1 3 76
M  V30 11 1 4 46
M  V30 12 1 4 47
M  V30 13 1 4 48
M  V30 14 1 5 6
M  V30 15 1 5 49
M  V30 16 1 5 50
M  V30 17 1 6 7
M  V30 18 1 6 51
M  V30 19 1 6 52
M  V30 20 1 7 8
M  V30 21 2 8 9
M  V30 22 1 8 11
M  V30 23 1 9 10
M  V30 24 1 9 53
M  V30 25 2 10 20
M  V30 26 1 10 54
M  V30 27 2 11 12
M  V30 28 1 11 55
M  V30 29 1 12 13
M  V30 30 1 12 20
M  V30 31 1 13 14
M  V30 32 1 13 56
M  V30 33 1 14 15
M  V30 34 1 14 19
M  V30 35 1 14 57
M  V30 36 1 15 16
M  V30 37 1 15 58
M  V30 38 1 15 59
M  V30 39 1 16 17
M  V30 40 1 16 60
M  V30 41 1 16 61
M  V30 42 1 17 18
M  V30 43 1 18 19
M  V30 44 1 18 62
M  V30 45 1 18 63
M  V30 46 1 19 64
M  V30 47 1 19 65
M  V30 48 1 20 21
M  V30 49 2 21 22
M  V30 50 1 21 23
M  V30 51 1 23 24
M  V30 52 1 23 66
M  V30 53 2 24 25
M  V30 54 1 24 27
M  V30 55 1 25 26
M  V30 56 1 26 28
M  V30 57 1 26 67
M  V30 58 2 27 28
M  V30 59 1 27 29
M  V30 60 1 28 32
M  V30 61 2 29 30
M  V30 62 1 29 68
M  V30 63 1 30 31
M  V30 64 1 30 33
M  V30 65 2 31 32
M  V30 66 1 31 69
M  V30 67 1 32 70
M  V30 68 1 33 34
M  V30 69 1 33 71
M  V30 70 1 33 72
M  V30 71 2 34 35
M  V30 72 1 34 41
M  V30 73 1 35 36
M  V30 74 1 35 73
M  V30 75 1 36 37
M  V30 76 2 36 38
M  V30 77 1 38 39
M  V30 78 1 38 74
M  V30 79 1 39 40
M  V30 80 2 39 41
M  V30 81 1 41 75
M  V30 END BOND
M  V30 END CTAB
M  END
> <s_m_entry_id>
455

> <s_m_entry_name>
result.2261

> <s_m_Source_Path>
D:\OneDrive - zju.edu.cn\DOC\A-Finished\LCK_VS\Planet\LCK-8617

> <s_m_Source_File>
glide-dock_SP_top1262_2_pv.maegz

> <i_m_Source_File_Index>
455

> <PLANET_affinity>
8.909

> <i_lp_mmshare_version>
54117

> <i_f3d_flags>
0

> <s_epik_input>
W0NIM11OMVtDSDJdW0NIMl1OKFtDSDJdW0NIMl0xKWMyW2NIXVtjSF1jKGMoW2NIXTIpW05IXVtDSF0zW0NIMl1bQ0gyXU9bQ0gyXVtDSDJdMylDKD1PKVtOSF1jNG5bbkhdYyhjNDUpW2NIXVtjSF1jKFtjSF01KVtDSDJdYzZbY0hdYyhGKVtjSF1jKEYpW2NIXTY=

> <s_epik_cmdline>
J2VwaWtfcHl0aG9uJywgJy1waCcsICc3LjAnLCAnLXRuJywgJzgnLCAnLW1hJywgJzUwMCcsICctaW1hZScsICc8aW5maWxlLm1hZT4nLCAnLW9tYWUnLCAnPG91dGZpbGUubWFlPic=

> <r_epik_Ionization_Penalty>
  0.0648

> <r_epik_Ionization_Penalty_Charging>
  0.0647

> <r_epik_Ionization_Penalty_Neutral>
  0.0001

> <r_epik_State_Penalty>
  0.0647

> <r_epik_Charging_Adjusted_Penalty>
0.1294

> <i_epik_Tot_Q>
1

> <i_epik_Tot_abs_Q>
1

> <s_lp_Force_Field>
S-OPLS

> <r_lp_Energy>
79.3706

> <b_lp_Chiralities_Consistent>
1

> <s_lp_Variant>
O=C(NC1=NNC2=C1C=C(CC3=CC(F)=CC(F)=C3)C=C2)C4=C(NC5CCOCC5)C=C(N6CCN(C)CC6)C=C4-1

> <s_i_glide_gridfile>
glide-grid_1

> <i_i_glide_lignum>
546

> <i_i_glide_rotatable_bonds>
8

> <r_i_docking_score>
-8.08458245487781

> <r_i_glide_ligand_efficiency>
-0.197184937923849

> <r_i_glide_ligand_efficiency_sa>
-0.67993650165115

> <r_i_glide_ligand_efficiency_ln>
-1.71517107205926

> <r_i_glide_gscore>
-8.14928245487781

> <r_i_glide_lipo>
-2.55190934874058

> <r_i_glide_hbond>
-0.44620569905341

> <r_i_glide_metal>
0

> <r_i_glide_rewards>
-1.39812596568224

> <r_i_glide_evdw>
-47.2138175964355

> <r_i_glide_ecoul>
-10.6347818374634

> <r_i_glide_erotb>
0.312304818692336

> <r_i_glide_esite>
-0.109438104652634

> <r_i_glide_emodel>
-87.6878494665511

> <r_i_glide_energy>
-57.8485994338989

> <r_i_glide_einternal>
7.56534242630005

> <i_i_glide_confnum>
17

> <i_i_glide_posenum>
288

> <r_i_glide_eff_state_penalty>
0.0647

> <r_lp_tautomer_probability>
0.980392

> <s_m_subgroup_title>
glide-dock_SP_top1262_2_pv

> <s_m_subgroupid>
glide-dock_SP_top1262_2_pv

> <b_m_subgroup_collapsed>
0

$$$$
C[C@@H](N1C(C(C=C(OC)C(C2=C(C)ON=C2C)=C3)=C3N=C4)=C4NC1=O)C5=CC=CC=N5
                    3D
 Schrodinger Suite 2021-3.
  0  0  0     0  0            999 V3000
M  V30 BEGIN CTAB
M  V30 COUNTS 52 56 0 0 0
M  V30 BEGIN ATOM
M  V30 1 N  21.5448 39.9496 86.6479 0
M  V30 2 C  21.3444 41.2599 86.3504 0
M  V30 3 C  22.0826 41.9375 85.3785 0
M  V30 4 C  23.0514 41.2302 84.6674 0
M  V30 5 C  23.2669 39.8810 84.9563 0
M  V30 6 C  22.5035 39.2642 85.9595 0
M  V30 7 C  22.7464 37.7897 86.3488 0 CFG=1
M  V30 8 C  21.8778 37.2655 87.5306 0
M  V30 9 N  22.8078 36.8685 85.1875 0
M  V30 10 C  21.6652 36.3703 84.6188 0
M  V30 11 O  20.4879 36.5403 84.9340 0
M  V30 12 N  22.0845 35.5922 83.6100 0
M  V30 13 C  23.4234 35.6939 83.4307 0
M  V30 14 C  24.2246 35.1570 82.4446 0
M  V30 15 N  25.5439 35.4346 82.3719 0
M  V30 16 C  26.0814 36.2932 83.2827 0
M  V30 17 C  25.3219 36.8642 84.3568 0
M  V30 18 C  23.9207 36.5267 84.3990 0
M  V30 19 C  27.4331 36.6445 83.1103 0
M  V30 20 C  28.0610 37.5343 83.9794 0
M  V30 21 C  27.3606 38.0558 85.0776 0
M  V30 22 C  26.0048 37.7310 85.2542 0
M  V30 23 O  28.0576 38.8823 85.9419 0
M  V30 24 C  27.4455 39.3359 87.1455 0
M  V30 25 C  29.4794 37.9049 83.6666 0
M  V30 26 C  30.0434 39.1739 83.6445 0
M  V30 27 C  29.5329 40.5745 83.8879 0
M  V30 28 O  31.3476 39.0779 83.2938 0
M  V30 29 N  31.6505 37.7381 83.0712 0
M  V30 30 C  30.5445 37.0639 83.2932 0
M  V30 31 C  30.5766 35.5602 83.1190 0
M  V30 32 H  20.5739 41.7766 86.9046 0
M  V30 33 H  21.8973 42.9822 85.1711 0
M  V30 34 H  23.6292 41.7265 83.9002 0
M  V30 35 H  24.0202 39.3397 84.4074 0
M  V30 36 H  23.7395 37.7790 86.7789 0
M  V30 37 H  22.0807 37.8247 88.4436 0
M  V30 38 H  20.8098 37.3588 87.3307 0
M  V30 39 H  22.0820 36.2150 87.7415 0
M  V30 40 H  21.4710 35.0409 83.0238 0
M  V30 41 H  23.8068 34.5237 81.6770 0
M  V30 42 H  27.9706 36.2356 82.2652 0
M  V30 43 H  25.4721 38.1755 86.0706 0
M  V30 44 H  28.1738 39.9061 87.7219 0
M  V30 45 H  26.5976 39.9933 86.9390 0
M  V30 46 H  27.1149 38.5013 87.7681 0
M  V30 47 H  28.4452 40.6191 83.9032 0
M  V30 48 H  29.8875 40.9614 84.8426 0
M  V30 49 H  29.8727 41.2664 83.1172 0
M  V30 50 H  29.6788 35.0791 83.5019 0
M  V30 51 H  30.6641 35.2787 82.0698 0
M  V30 52 H  31.4210 35.1077 83.6391 0
M  V30 END ATOM
M  V30 BEGIN BOND
M  V30 1 2 1 2
M  V30 2 1 1 6
M  V30 3 1 2 3
M  V30 4 1 2 32
M  V30 5 2 3 4
M  V30 6 1 3 33
M  V30 7 1 4 5
M  V30 8 1 4 34
M  V30 9 2 5 6
M  V30 10 1 5 35
M  V30 11 1 6 7
M  V30 12 1 7 8
M  V30 13 1 7 9
M  V30 14 1 7 36
M  V30 15 1 8 37
M  V30 16 1 8 38
M  V30 17 1 8 39
M  V30 18 1 9 10
M  V30 19 1 9 18
M  V30 20 2 10 11
M  V30 21 1 10 12
M  V30 22 1 12 13
M  V30 23 1 12 40
M  V30 24 2 13 14
M  V30 25 1 13 18
M  V30 26 1 14 15
M  V30 27 1 14 41
M  V30 28 2 15 16
M  V30 29 1 16 17
M  V30 30 1 16 19
M  V30 31 2 17 18
M  V30 32 1 17 22
M  V30 33 2 19 20
M  V30 34 1 19 42
M  V30 35 1 20 21
M  V30 36 1 20 25
M  V30 37 2 21 22
M  V30 38 1 21 23
M  V30 39 1 22 43
M  V30 40 1 23 24
M  V30 41 1 24 44
M  V30 42 1 24 45
M  V30 43 1 24 46
M  V30 44 2 25 26
M  V30 45 1 25 30
M  V30 46 1 26 27
M  V30 47 1 26 28
M  V30 48 1 27 47
M  V30 49 1 27 48
M  V30 50 1 27 49
M  V30 51 1 28 29
M  V30 52 2 29 30
M  V30 53 1 30 31
M  V30 54 1 31 50
M  V30 55 1 31 51
M  V30 56 1 31 52
M  V30 END BOND
M  V30 END CTAB
M  END
> <s_m_entry_id>
463

> <s_m_entry_name>
result.2833

> <s_m_Source_Path>
D:\OneDrive - zju.edu.cn\DOC\A-Finished\LCK_VS\Planet\LCK-8617

> <s_m_Source_File>
glide-dock_SP_top1262_2_pv.maegz

> <i_m_Source_File_Index>
463

> <PLANET_affinity>
7.7

> <i_lp_mmshare_version>
54117

> <i_f3d_flags>
0

> <s_epik_input>
W2NIXTFbY0hdW2NIXVtjSF1uYzFbQ0BASF0oW0NIM10pbihjKD1PKVtuSF0yKWMoYzIzKWM0YyhuW2NIXTMpW2NIXWMoYyhbY0hdNClPW0NIM10pLWM1YyhbQ0gzXSlvbmM1W0NIM10=

> <s_epik_cmdline>
J2VwaWtfcHl0aG9uJywgJy1waCcsICc3LjAnLCAnLXRuJywgJzgnLCAnLW1hJywgJzUwMCcsICctaW1hZScsICc8aW5maWxlLm1hZT4nLCAnLW9tYWUnLCAnPG91dGZpbGUubWFlPic=

> <r_epik_Ionization_Penalty>
  0.0009

> <r_epik_Ionization_Penalty_Charging>
  0.0003

> <r_epik_Ionization_Penalty_Neutral>
  0.0006

> <r_epik_State_Penalty>
  0.0000

> <r_epik_Charging_Adjusted_Penalty>
0.000307054

> <i_epik_Tot_Q>
0

> <i_epik_Tot_abs_Q>
0

> <s_lp_Force_Field>
S-OPLS

> <r_lp_Energy>
43.3645

> <b_lp_Chiralities_Consistent>
1

> <s_lp_Variant>
C[C@@H](N1C(C(C=C(OC)C(C2=C(C)ON=C2C)=C3)=C3N=C4)=C4NC1=O)C5=CC=CC=N5-1

> <s_i_glide_gridfile>
glide-grid_1

> <i_i_glide_lignum>
1660

> <i_i_glide_rotatable_bonds>
4

> <r_i_docking_score>
-8.07591996500918

> <r_i_glide_ligand_efficiency>
-0.260513547258361

> <r_i_glide_ligand_efficiency_sa>
-0.818372216106505

> <r_i_glide_ligand_efficiency_ln>
-1.8213674493332

> <r_i_glide_gscore>
-8.07591996500918

> <r_i_glide_lipo>
-3.1163058681766

> <r_i_glide_hbond>
-0.508263834815958

> <r_i_glide_metal>
0

> <r_i_glide_rewards>
-1.88130116589502

> <r_i_glide_evdw>
-43.4963111877441

> <r_i_glide_ecoul>
-4.9231276512146

> <r_i_glide_erotb>
0.343235610947805

> <r_i_glide_esite>
0

> <r_i_glide_emodel>
-70.9237792543457

> <r_i_glide_energy>
-48.4194388389587

> <r_i_glide_einternal>
1.01033651828766

> <i_i_glide_confnum>
12

> <i_i_glide_posenum>
19

> <r_i_glide_eff_state_penalty>
0

> <r_lp_tautomer_probability>
1

> <s_m_subgroup_title>
glide-dock_SP_top1262_2_pv

> <s_m_subgroupid>
glide-dock_SP_top1262_2_pv

> <b_m_subgroup_collapsed>
0

$$$$
N#CC1=CC=CC(C2=NC(N)=NC(C3=CN(CC4=NC(C(C)(O)C)=CC=C4)N=N3)=C2)=C1C
                    3D
 Schrodinger Suite 2021-3.
  0  0  0     0  0            999 V3000
M  V30 BEGIN CTAB
M  V30 COUNTS 54 57 0 0 0
M  V30 BEGIN ATOM
M  V30 1 N  28.6236 36.7949 83.1354 0
M  V30 2 C  27.4968 36.5621 83.2489 0
M  V30 3 C  26.0735 36.2605 83.4007 0
M  V30 4 C  25.4871 35.4940 82.3997 0
M  V30 5 C  24.1386 35.1688 82.4443 0
M  V30 6 C  23.3603 35.6251 83.4975 0
M  V30 7 C  23.9093 36.3978 84.5325 0
M  V30 8 C  25.2958 36.7037 84.4944 0
M  V30 9 C  25.9718 37.4630 85.6467 0
M  V30 10 C  22.9926 36.8651 85.6184 0
M  V30 11 N  22.0844 35.9568 86.0765 0
M  V30 12 C  21.2536 36.3590 87.0656 0
M  V30 13 N  20.3501 35.4223 87.5404 0
M  V30 14 N  21.2454 37.5838 87.6440 0
M  V30 15 C  22.1610 38.4764 87.1789 0
M  V30 16 C  23.0351 38.1658 86.1361 0
M  V30 17 C  22.2527 39.7960 87.8639 0
M  V30 18 C  23.3829 40.5917 88.0292 0
M  V30 19 N  22.9523 41.6706 88.7548 0
M  V30 20 N  21.6498 41.5669 89.0278 0
M  V30 21 N  21.2202 40.3883 88.4435 0
M  V30 22 C  23.7498 42.7519 89.3177 0
M  V30 23 C  24.3444 42.4243 90.6844 0
M  V30 24 N  23.4749 41.9911 91.6359 0
M  V30 25 C  23.9472 41.6992 92.8787 0
M  V30 26 C  22.9171 41.2109 93.9159 0
M  V30 27 C  22.8154 39.6731 93.8628 0
M  V30 28 O  23.2838 41.5573 95.2419 0
M  V30 29 C  21.5175 41.8452 93.7279 0
M  V30 30 C  25.3106 41.8122 93.1909 0
M  V30 31 C  26.1963 42.2497 92.2043 0
M  V30 32 C  25.7129 42.5646 90.9328 0
M  V30 33 H  26.0829 35.1570 81.5657 0
M  V30 34 H  23.6828 34.5857 81.6582 0
M  V30 35 H  22.3092 35.3730 83.4985 0
M  V30 36 H  25.4957 37.2517 86.6029 0
M  V30 37 H  27.0082 37.1594 85.7934 0
M  V30 38 H  25.9602 38.5363 85.4605 0
M  V30 39 H  19.7069 35.6800 88.2741 0
M  V30 40 H  20.3616 34.4958 87.1369 0
M  V30 41 H  23.7279 38.9058 85.7674 0
M  V30 42 H  24.4196 40.4790 87.7449 0
M  V30 43 H  24.5316 43.0001 88.5985 0
M  V30 44 H  23.1145 43.6340 89.4095 0
M  V30 45 H  22.4821 39.3350 92.8823 0
M  V30 46 H  23.7804 39.1989 94.0433 0
M  V30 47 H  22.1112 39.2845 94.6012 0
M  V30 48 H  23.9102 40.8910 95.5559 0
M  V30 49 H  21.1114 41.6447 92.7380 0
M  V30 50 H  20.7956 41.4492 94.4419 0
M  V30 51 H  21.5497 42.9286 93.8527 0
M  V30 52 H  25.6811 41.5554 94.1714 0
M  V30 53 H  27.2496 42.3455 92.4271 0
M  V30 54 H  26.3899 42.9062 90.1613 0
M  V30 END ATOM
M  V30 BEGIN BOND
M  V30 1 3 1 2
M  V30 2 1 2 3
M  V30 3 2 3 4
M  V30 4 1 3 8
M  V30 5 1 4 5
M  V30 6 1 4 33
M  V30 7 2 5 6
M  V30 8 1 5 34
M  V30 9 1 6 7
M  V30 10 1 6 35
M  V30 11 2 7 8
M  V30 12 1 7 10
M  V30 13 1 8 9
M  V30 14 1 9 36
M  V30 15 1 9 37
M  V30 16 1 9 38
M  V30 17 2 10 11
M  V30 18 1 10 16
M  V30 19 1 11 12
M  V30 20 1 12 13
M  V30 21 2 12 14
M  V30 22 1 13 39
M  V30 23 1 13 40
M  V30 24 1 14 15
M  V30 25 2 15 16
M  V30 26 1 15 17
M  V30 27 1 16 41
M  V30 28 2 17 18
M  V30 29 1 17 21
M  V30 30 1 18 19
M  V30 31 1 18 42
M  V30 32 1 19 20
M  V30 33 1 19 22
M  V30 34 2 20 21
M  V30 35 1 22 23
M  V30 36 1 22 43
M  V30 37 1 22 44
M  V30 38 2 23 24
M  V30 39 1 23 32
M  V30 40 1 24 25
M  V30 41 1 25 26
M  V30 42 2 25 30
M  V30 43 1 26 27
M  V30 44 1 26 28
M  V30 45 1 26 29
M  V30 46 1 27 45
M  V30 47 1 27 46
M  V30 48 1 27 47
M  V30 49 1 28 48
M  V30 50 1 29 49
M  V30 51 1 29 50
M  V30 52 1 29 51
M  V30 53 1 30 31
M  V30 54 1 30 52
M  V30 55 2 31 32
M  V30 56 1 31 53
M  V30 57 1 32 54
M  V30 END BOND
M  V30 END CTAB
M  END
> <s_m_entry_id>
464

> <s_m_entry_name>
result.7153

> <s_m_Source_Path>
D:\OneDrive - zju.edu.cn\DOC\A-Finished\LCK_VS\Planet\LCK-8617

> <s_m_Source_File>
glide-dock_SP_top1262_2_pv.maegz

> <i_m_Source_File_Index>
464

> <PLANET_affinity>
8.348

> <i_lp_mmshare_version>
54117

> <i_f3d_flags>
0

> <s_epik_input>
TiNDYzFbY0hdW2NIXVtjSF1jKGMxW0NIM10pLWMybmMoW05IMl0pbmMoW2NIXTIpLWMzW2NIXW4obm4zKVtDSDJdYzRuYyhDKFtDSDNdKShbT0hdKVtDSDNdKVtjSF1bY0hdW2NIXTQ=

> <s_epik_cmdline>
J2VwaWtfcHl0aG9uJywgJy1waCcsICc3LjAnLCAnLXRuJywgJzgnLCAnLW1hJywgJzUwMCcsICctaW1hZScsICc8aW5maWxlLm1hZT4nLCAnLW9tYWUnLCAnPG91dGZpbGUubWFlPic=

> <r_epik_Ionization_Penalty>
  0.0001

> <r_epik_Ionization_Penalty_Charging>
  0.0000

> <r_epik_Ionization_Penalty_Neutral>
  0.0001

> <r_epik_State_Penalty>
  0.0000

> <r_epik_Charging_Adjusted_Penalty>
0

> <i_epik_Tot_Q>
0

> <i_epik_Tot_abs_Q>
0

> <s_lp_Force_Field>
S-OPLS

> <r_lp_Energy>
37.1256

> <b_lp_Chiralities_Consistent>
1

> <s_lp_Variant>
N#CC1=CC=CC(C2=NC(N)=NC(C3=CN(CC4=NC(C(C)(O)C)=CC=C4)N=N3)=C2)=C1C-1

> <s_i_glide_gridfile>
glide-grid_1

> <i_i_glide_lignum>
919

> <i_i_glide_rotatable_bonds>
6

> <r_i_docking_score>
-8.07506523793678

> <r_i_glide_ligand_efficiency>
-0.252345788685524

> <r_i_glide_ligand_efficiency_sa>
-0.80114793991277

> <r_i_glide_ligand_efficiency_ln>
-1.80822722473898

> <r_i_glide_gscore>
-8.07506523793678

> <r_i_glide_lipo>
-3.44403247380197

> <r_i_glide_hbond>
-0.32

> <r_i_glide_metal>
0

> <r_i_glide_rewards>
-1.32915413205917

> <r_i_glide_evdw>
-45.4288787841797

> <r_i_glide_ecoul>
-7.58745956420898

> <r_i_glide_erotb>
0.545590759662012

> <r_i_glide_esite>
-0.117906517897317

> <r_i_glide_emodel>
-77.2252559844852

> <r_i_glide_energy>
-53.0163383483887

> <r_i_glide_einternal>
2.60790634155273

> <i_i_glide_confnum>
3

> <i_i_glide_posenum>
52

> <r_i_glide_eff_state_penalty>
0

> <r_lp_tautomer_probability>
1

> <s_m_subgroup_title>
glide-dock_SP_top1262_2_pv

> <s_m_subgroupid>
glide-dock_SP_top1262_2_pv

> <b_m_subgroup_collapsed>
0

$$$$
N#CCCC1=CC=CC(N2C=CC3=CN=C(NC4=CC(OC)=C(OC)C(OC)=C4)N=C32)=C1
                    3D
 Schrodinger Suite 2021-3.
  0  0  0     0  0            999 V3000
M  V30 BEGIN CTAB
M  V30 COUNTS 55 58 0 0 0
M  V30 BEGIN ATOM
M  V30 1 N  28.8831 41.5564 83.2435 0
M  V30 2 C  28.9518 42.0668 84.2813 0
M  V30 3 C  29.0321 42.7007 85.6105 0
M  V30 4 C  29.2857 41.7161 86.7760 0
M  V30 5 C  28.3087 40.5465 86.8087 0
M  V30 6 C  27.3035 40.4643 87.7761 0
M  V30 7 C  26.3913 39.4080 87.7484 0
M  V30 8 C  26.4636 38.4446 86.7410 0
M  V30 9 C  27.4716 38.5096 85.7655 0
M  V30 10 C  28.4013 39.5537 85.8318 0
M  V30 11 N  27.5337 37.5960 84.6784 0
M  V30 12 C  28.7034 37.2249 84.0287 0
M  V30 13 C  28.4632 36.3009 83.0343 0
M  V30 14 C  26.4986 36.8577 84.1010 0
M  V30 15 C  27.0658 36.0247 83.0942 0
M  V30 16 N  25.1937 36.8793 84.4099 0
M  V30 17 C  24.4260 36.0148 83.6961 0
M  V30 18 N  24.8526 35.1581 82.7360 0
M  V30 19 C  26.1761 35.1666 82.4435 0
M  V30 20 N  23.0605 35.9567 83.9748 0
M  V30 21 C  22.3159 36.6950 84.9000 0
M  V30 22 C  21.6084 36.0089 85.8770 0
M  V30 23 C  20.8122 36.6949 86.8026 0
M  V30 24 O  20.0836 36.0584 87.7877 0
M  V30 25 C  20.3318 34.6801 88.0427 0
M  V30 26 C  20.7276 38.0936 86.7250 0
M  V30 27 O  19.9650 38.7771 87.6434 0
M  V30 28 C  18.6202 38.9870 87.2366 0
M  V30 29 C  21.4464 38.8024 85.7497 0
M  V30 30 C  22.2435 38.0866 84.8434 0
M  V30 31 O  21.3154 40.1799 85.7371 0
M  V30 32 C  22.0047 40.9434 84.7503 0
M  V30 33 H  29.8199 43.4515 85.5716 0
M  V30 34 H  28.0980 43.2387 85.7711 0
M  V30 35 H  30.2999 41.3184 86.7069 0
M  V30 36 H  29.2599 42.2549 87.7244 0
M  V30 37 H  27.2196 41.2210 88.5428 0
M  V30 38 H  25.6134 39.3482 88.4966 0
M  V30 39 H  25.7322 37.6510 86.7413 0
M  V30 40 H  29.1876 39.6285 85.0949 0
M  V30 41 H  29.6488 37.6499 84.3344 0
M  V30 42 H  29.2056 35.8554 82.3839 0
M  V30 43 H  26.5290 34.4869 81.6821 0
M  V30 44 H  22.5559 35.2605 83.4476 0
M  V30 45 H  21.6840 34.9328 85.9042 0
M  V30 46 H  19.6815 34.3566 88.8434 0
M  V30 47 H  20.1094 34.0471 87.1863 0
M  V30 48 H  21.3636 34.5057 88.3528 0
M  V30 49 H  18.0832 39.4791 88.0451 0
M  V30 50 H  18.5626 39.6322 86.3595 0
M  V30 51 H  18.1070 38.0481 87.0201 0
M  V30 52 H  22.8066 38.5958 84.0771 0
M  V30 53 H  21.7742 42.0000 84.8895 0
M  V30 54 H  23.0860 40.8258 84.8361 0
M  V30 55 H  21.6931 40.6692 83.7413 0
M  V30 END ATOM
M  V30 BEGIN BOND
M  V30 1 3 1 2
M  V30 2 1 2 3
M  V30 3 1 3 4
M  V30 4 1 3 33
M  V30 5 1 3 34
M  V30 6 1 4 5
M  V30 7 1 4 35
M  V30 8 1 4 36
M  V30 9 2 5 6
M  V30 10 1 5 10
M  V30 11 1 6 7
M  V30 12 1 6 37
M  V30 13 2 7 8
M  V30 14 1 7 38
M  V30 15 1 8 9
M  V30 16 1 8 39
M  V30 17 2 9 10
M  V30 18 1 9 11
M  V30 19 1 10 40
M  V30 20 1 11 12
M  V30 21 1 11 14
M  V30 22 2 12 13
M  V30 23 1 12 41
M  V30 24 1 13 15
M  V30 25 1 13 42
M  V30 26 2 14 15
M  V30 27 1 14 16
M  V30 28 1 15 19
M  V30 29 2 16 17
M  V30 30 1 17 18
M  V30 31 1 17 20
M  V30 32 2 18 19
M  V30 33 1 19 43
M  V30 34 1 20 21
M  V30 35 1 20 44
M  V30 36 2 21 22
M  V30 37 1 21 30
M  V30 38 1 22 23
M  V30 39 1 22 45
M  V30 40 1 23 24
M  V30 41 2 23 26
M  V30 42 1 24 25
M  V30 43 1 25 46
M  V30 44 1 25 47
M  V30 45 1 25 48
M  V30 46 1 26 27
M  V30 47 1 26 29
M  V30 48 1 27 28
M  V30 49 1 28 49
M  V30 50 1 28 50
M  V30 51 1 28 51
M  V30 52 2 29 30
M  V30 53 1 29 31
M  V30 54 1 30 52
M  V30 55 1 31 32
M  V30 56 1 32 53
M  V30 57 1 32 54
M  V30 58 1 32 55
M  V30 END BOND
M  V30 END CTAB
M  END
> <s_m_entry_id>
472

> <s_m_entry_name>
result.2965

> <s_m_Source_Path>
D:\OneDrive - zju.edu.cn\DOC\A-Finished\LCK_VS\Planet\LCK-8617

> <s_m_Source_File>
glide-dock_SP_top1262_2_pv.maegz

> <i_m_Source_File_Index>
472

> <PLANET_affinity>
7.729

> <i_lp_mmshare_version>
54117

> <i_f3d_flags>
0

> <s_epik_input>
TiNDW0NIMl1bQ0gyXWMxW2NIXVtjSF1bY0hdYyhbY0hdMSktbjJbY0hdW2NIXWMoYzIzKVtjSF1uYyhuMylbTkhdYzRbY0hdYyhPW0NIM10pYyhPW0NIM10pYyhbY0hdNClPW0NIM10=

> <s_epik_cmdline>
J2VwaWtfcHl0aG9uJywgJy1waCcsICc3LjAnLCAnLXRuJywgJzgnLCAnLW1hJywgJzUwMCcsICctaW1hZScsICc8aW5maWxlLm1hZT4nLCAnLW9tYWUnLCAnPG91dGZpbGUubWFlPic=

> <r_epik_Ionization_Penalty>
  0.0198

> <r_epik_Ionization_Penalty_Charging>
  0.0000

> <r_epik_Ionization_Penalty_Neutral>
  0.0198

> <r_epik_State_Penalty>
  0.0152

> <r_epik_Charging_Adjusted_Penalty>
0.0152483

> <i_epik_Tot_Q>
0

> <i_epik_Tot_abs_Q>
0

> <s_lp_Force_Field>
S-OPLS

> <r_lp_Energy>
40.6747

> <b_lp_Chiralities_Consistent>
1

> <s_lp_Variant>
N#CCCC1=CC=CC(N2C=CC3=CN=C(NC4=CC(OC)=C(OC)C(OC)=C4)N=C32)=C1-1

> <s_i_glide_gridfile>
glide-grid_1

> <i_i_glide_lignum>
1612

> <i_i_glide_rotatable_bonds>
8

> <r_i_docking_score>
-8.06091903048743

> <r_i_glide_ligand_efficiency>
-0.251903719702732

> <r_i_glide_ligand_efficiency_sa>
-0.799744458377738

> <r_i_glide_ligand_efficiency_ln>
-1.80505950328002

> <r_i_glide_gscore>
-8.07611903048743

> <r_i_glide_lipo>
-2.50970805391953

> <r_i_glide_hbond>
-0.506135681920639

> <r_i_glide_metal>
0

> <r_i_glide_rewards>
-2.12118641694127

> <r_i_glide_evdw>
-42.497989654541

> <r_i_glide_ecoul>
-7.91099071502686

> <r_i_glide_erotb>
0.430972773216081

> <r_i_glide_esite>
-0.0585135609409818

> <r_i_glide_emodel>
-72.8167290820321

> <r_i_glide_energy>
-50.4089803695679

> <r_i_glide_einternal>
5.08937644958496

> <i_i_glide_confnum>
118

> <i_i_glide_posenum>
375

> <r_i_glide_eff_state_penalty>
0.0152

> <r_lp_tautomer_probability>
1

> <s_m_subgroup_title>
glide-dock_SP_top1262_2_pv

> <s_m_subgroupid>
glide-dock_SP_top1262_2_pv

> <b_m_subgroup_collapsed>
0

$$$$
O=C(C1=C(NC(N)=O)SC(C2=CC=C(C3=C(C)ON=C3C)C=C2O[C@@H]4CNCC4)=C1)N
                    3D
 Schrodinger Suite 2021-3.
  0  0  0     0  0            999 V3000
M  V30 BEGIN CTAB
M  V30 COUNTS 55 58 0 0 0
M  V30 BEGIN ATOM
M  V30 1 O  30.2113 36.6673 83.4588 0
M  V30 2 C  29.0317 36.4775 83.1760 0
M  V30 3 N  28.6602 35.4285 82.4444 0
M  V30 4 C  27.9733 37.3563 83.6416 0
M  V30 5 C  28.1876 38.6619 84.0972 0
M  V30 6 N  29.3843 39.3665 84.1365 0
M  V30 7 C  29.5132 40.6536 83.7732 0
M  V30 8 O  28.6412 41.3349 83.2430 0
M  V30 9 N  30.7057 41.1564 84.0524 0
M  V30 10 S  26.7476 39.3526 84.7838 0
M  V30 11 C  25.7900 37.9520 84.4081 0
M  V30 12 C  26.6136 36.9910 83.7983 0
M  V30 13 C  24.3387 37.8639 84.8422 0
M  V30 14 C  23.7820 36.5782 84.8552 0
M  V30 15 C  22.4954 36.3508 85.3299 0
M  V30 16 C  21.7229 37.3990 85.8249 0
M  V30 17 C  20.4049 37.1199 86.4740 0
M  V30 18 C  20.0817 36.0126 87.2425 0
M  V30 19 C  20.8130 34.7556 87.6437 0
M  V30 20 O  18.8176 36.1391 87.7093 0
M  V30 21 N  18.2867 37.3315 87.2306 0
M  V30 22 C  19.2219 37.8811 86.4870 0
M  V30 23 C  18.9078 39.1818 85.7852 0
M  V30 24 C  22.2347 38.6952 85.7525 0
M  V30 25 C  23.5267 38.9493 85.2585 0
M  V30 26 O  24.0043 40.2435 85.1429 0
M  V30 27 C  23.5677 41.2675 86.0412 0 CFG=2
M  V30 28 C  22.4575 42.0973 85.3695 0
M  V30 29 N  22.8503 43.5565 85.6427 0 CHG=1
M  V30 30 C  24.3784 43.5386 85.5751 0
M  V30 31 C  24.7297 42.2414 86.3009 0
M  V30 32 H  29.3734 34.7654 82.1766 0
M  V30 33 H  27.7774 35.4165 81.9571 0
M  V30 34 H  30.2262 38.8218 84.2505 0
M  V30 35 H  31.4185 40.6262 84.5285 0
M  V30 36 H  30.8842 42.1309 83.7749 0
M  V30 37 H  26.2488 36.0158 83.5127 0
M  V30 38 H  24.3493 35.7195 84.5319 0
M  V30 39 H  22.1168 35.3395 85.3406 0
M  V30 40 H  20.7619 34.0035 86.8515 0
M  V30 41 H  21.8665 34.9408 87.8555 0
M  V30 42 H  20.3806 34.3029 88.5343 0
M  V30 43 H  19.0893 40.0385 86.4357 0
M  V30 44 H  19.5107 39.3193 84.8868 0
M  V30 45 H  17.8626 39.2392 85.4746 0
M  V30 46 H  21.6194 39.5074 86.1039 0
M  V30 47 H  23.2277 40.8457 86.9904 0
M  V30 48 H  22.4309 41.9816 84.2834 0
M  V30 49 H  21.4614 41.9509 85.7906 0
M  V30 50 H  22.5380 43.8412 86.5620 0
M  V30 51 H  24.7655 44.4492 86.0348 0
M  V30 52 H  24.6290 43.5135 84.5112 0
M  V30 53 H  24.8812 42.4087 87.3677 0
M  V30 54 H  25.6685 41.8652 85.8953 0
M  V30 55 H  22.4275 44.2144 84.9875 0
M  V30 END ATOM
M  V30 BEGIN BOND
M  V30 1 2 1 2
M  V30 2 1 2 3
M  V30 3 1 2 4
M  V30 4 1 3 32
M  V30 5 1 3 33
M  V30 6 2 4 5
M  V30 7 1 4 12
M  V30 8 1 5 6
M  V30 9 1 5 10
M  V30 10 1 6 7
M  V30 11 1 6 34
M  V30 12 2 7 8
M  V30 13 1 7 9
M  V30 14 1 9 35
M  V30 15 1 9 36
M  V30 16 1 10 11
M  V30 17 2 11 12
M  V30 18 1 11 13
M  V30 19 1 12 37
M  V30 20 2 13 14
M  V30 21 1 13 25
M  V30 22 1 14 15
M  V30 23 1 14 38
M  V30 24 2 15 16
M  V30 25 1 15 39
M  V30 26 1 16 17
M  V30 27 1 16 24
M  V30 28 2 17 18
M  V30 29 1 17 22
M  V30 30 1 18 19
M  V30 31 1 18 20
M  V30 32 1 19 40
M  V30 33 1 19 41
M  V30 34 1 19 42
M  V30 35 1 20 21
M  V30 36 2 21 22
M  V30 37 1 22 23
M  V30 38 1 23 43
M  V30 39 1 23 44
M  V30 40 1 23 45
M  V30 41 2 24 25
M  V30 42 1 24 46
M  V30 43 1 25 26
M  V30 44 1 26 27
M  V30 45 1 27 28
M  V30 46 1 27 31
M  V30 47 1 27 47
M  V30 48 1 28 29
M  V30 49 1 28 48
M  V30 50 1 28 49
M  V30 51 1 29 30
M  V30 52 1 29 50
M  V30 53 1 29 55
M  V30 54 1 30 31
M  V30 55 1 30 51
M  V30 56 1 30 52
M  V30 57 1 31 53
M  V30 58 1 31 54
M  V30 END BOND
M  V30 END CTAB
M  END
> <s_m_entry_id>
475

> <s_m_entry_name>
result.4434

> <s_m_Source_Path>
D:\OneDrive - zju.edu.cn\DOC\A-Finished\LCK_VS\Planet\LCK-8617

> <s_m_Source_File>
glide-dock_SP_top1262_2_pv.maegz

> <i_m_Source_File_Index>
475

> <PLANET_affinity>
8.765

> <i_lp_mmshare_version>
54117

> <i_f3d_flags>
0

> <s_epik_input>
Tz1DKFtOSDJdKWMxYyhbTkhdQyg9TylbTkgyXSlzYyhbY0hdMSktYzJbY0hdW2NIXWMoLWMzYyhbQ0gzXSlvbmMzW0NIM10pW2NIXWMyT1tDQEBIXTRbQ0gyXVtOSF1bQ0gyXVtDSDJdNA==

> <s_epik_cmdline>
J2VwaWtfcHl0aG9uJywgJy1waCcsICc3LjAnLCAnLXRuJywgJzgnLCAnLW1hJywgJzUwMCcsICctaW1hZScsICc8aW5maWxlLm1hZT4nLCAnLW9tYWUnLCAnPG91dGZpbGUubWFlPic=

> <r_epik_Ionization_Penalty>
  0.0008

> <r_epik_Ionization_Penalty_Charging>
  0.0008

> <r_epik_Ionization_Penalty_Neutral>
  0.0000

> <r_epik_State_Penalty>
  0.0005

> <r_epik_Charging_Adjusted_Penalty>
0.00126896

> <i_epik_Tot_Q>
1

> <i_epik_Tot_abs_Q>
1

> <s_lp_Force_Field>
S-OPLS

> <r_lp_Energy>
31.8914

> <b_lp_Chiralities_Consistent>
1

> <s_lp_Variant>
O=C(C1=C(NC(N)=O)SC(C2=CC=C(C3=C(C)ON=C3C)C=C2O[C@@H]4CNCC4)=C1)N-1

> <s_i_glide_gridfile>
glide-grid_1

> <i_i_glide_lignum>
628

> <i_i_glide_rotatable_bonds>
7

> <r_i_docking_score>
-8.05892425564406

> <r_i_glide_ligand_efficiency>
-0.259965298569163

> <r_i_glide_ligand_efficiency_sa>
-0.816649958283533

> <r_i_glide_ligand_efficiency_ln>
-1.81753439601543

> <r_i_glide_gscore>
-8.05942425564406

> <r_i_glide_lipo>
-2.62854228615522

> <r_i_glide_hbond>
-0.559912240742793

> <r_i_glide_metal>
0

> <r_i_glide_rewards>
-0.608276568437483

> <r_i_glide_evdw>
-43.4717102050781

> <r_i_glide_ecoul>
-16.1695747375488

> <r_i_glide_erotb>
0.510271186750837

> <r_i_glide_esite>
-0.173942626173168

> <r_i_glide_emodel>
-89.3591706626706

> <r_i_glide_energy>
-59.641284942627

> <r_i_glide_einternal>
7.19831800460815

> <i_i_glide_confnum>
51

> <i_i_glide_posenum>
245

> <r_i_glide_eff_state_penalty>
0.0005

> <r_lp_tautomer_probability>
1

> <s_m_subgroup_title>
glide-dock_SP_top1262_2_pv

> <s_m_subgroupid>
glide-dock_SP_top1262_2_pv

> <b_m_subgroup_collapsed>
0

$$$$
OC(C)(C)[C@H]1CC[C@H](NC2=NN3C(C=C2)=NC=C3C4=CC=CC(C(F)(F)F)=C4)CC1
                    3D
 Schrodinger Suite 2021-3.
  0  0  0     0  0            999 V3000
M  V30 BEGIN CTAB
M  V30 COUNTS 55 58 0 0 0
M  V30 BEGIN ATOM
M  V30 1 O  25.3640 42.6343 90.8830 0
M  V30 2 C  24.4836 42.1789 89.8729 0
M  V30 3 C  23.4520 41.2711 90.5764 0
M  V30 4 C  23.7969 43.4495 89.3293 0
M  V30 5 C  25.3274 41.4490 88.7718 0 CFG=1
M  V30 6 C  26.2228 40.2965 89.3188 0
M  V30 7 C  27.0670 39.6109 88.2210 0
M  V30 8 C  26.1668 39.1125 87.0745 0 CFG=1
M  V30 9 C  25.3473 40.2810 86.4819 0
M  V30 10 C  24.4791 40.9313 87.5755 0
M  V30 11 N  26.9855 38.4954 86.0289 0
M  V30 12 C  26.4228 37.6284 85.0773 0
M  V30 13 N  25.1151 37.2867 85.2049 0
M  V30 14 C  27.2327 37.1566 84.0413 0
M  V30 15 C  26.7069 36.2888 83.0757 0
M  V30 16 C  25.3493 35.9370 83.1768 0
M  V30 17 N  24.6324 36.4800 84.2528 0
M  V30 18 N  24.5554 35.1572 82.4069 0
M  V30 19 C  23.3619 35.2664 82.9516 0
M  V30 20 C  23.3271 36.0645 84.0951 0
M  V30 21 C  22.2051 36.4473 85.0008 0
M  V30 22 C  22.3645 36.3596 86.3858 0
M  V30 23 C  21.3551 36.7854 87.2434 0
M  V30 24 C  20.1639 37.2822 86.7254 0
M  V30 25 C  19.9782 37.3661 85.3408 0
M  V30 26 C  18.6809 37.9530 84.7942 0
M  V30 27 F  18.7770 39.2776 84.8321 0
M  V30 28 F  18.4487 37.5797 83.5356 0
M  V30 29 F  17.6453 37.5782 85.5429 0
M  V30 30 C  21.0018 36.9371 84.4827 0
M  V30 31 H  24.8555 43.1448 91.5170 0
M  V30 32 H  22.7115 40.8893 89.8751 0
M  V30 33 H  22.9049 41.8142 91.3477 0
M  V30 34 H  23.9204 40.4149 91.0618 0
M  V30 35 H  23.0079 43.2058 88.6177 0
M  V30 36 H  23.3306 44.0333 90.1235 0
M  V30 37 H  24.5060 44.1013 88.8186 0
M  V30 38 H  26.0234 42.1768 88.3472 0
M  V30 39 H  26.8781 40.6880 90.0982 0
M  V30 40 H  25.6065 39.5463 89.8134 0
M  V30 41 H  27.8128 40.3106 87.8446 0
M  V30 42 H  27.6206 38.7758 88.6544 0
M  V30 43 H  25.4737 38.3642 87.4587 0
M  V30 44 H  26.0101 41.0266 86.0401 0
M  V30 45 H  24.7029 39.9317 85.6752 0
M  V30 46 H  23.7299 40.2179 87.9216 0
M  V30 47 H  23.9064 41.7486 87.1334 0
M  V30 48 H  27.8329 38.9794 85.7598 0
M  V30 49 H  28.2705 37.4501 83.9845 0
M  V30 50 H  27.3196 35.9063 82.2707 0
M  V30 51 H  22.5082 34.7568 82.5300 0
M  V30 52 H  23.2838 35.9731 86.7979 0
M  V30 53 H  21.5073 36.7469 88.3092 0
M  V30 54 H  19.3891 37.6174 87.4027 0
M  V30 55 H  20.8854 37.0251 83.4126 0
M  V30 END ATOM
M  V30 BEGIN BOND
M  V30 1 1 1 2
M  V30 2 1 1 31
M  V30 3 1 2 3
M  V30 4 1 2 4
M  V30 5 1 2 5
M  V30 6 1 3 32
M  V30 7 1 3 33
M  V30 8 1 3 34
M  V30 9 1 4 35
M  V30 10 1 4 36
M  V30 11 1 4 37
M  V30 12 1 5 6
M  V30 13 1 5 10
M  V30 14 1 5 38
M  V30 15 1 6 7
M  V30 16 1 6 39
M  V30 17 1 6 40
M  V30 18 1 7 8
M  V30 19 1 7 41
M  V30 20 1 7 42
M  V30 21 1 8 9
M  V30 22 1 8 11
M  V30 23 1 8 43
M  V30 24 1 9 10
M  V30 25 1 9 44
M  V30 26 1 9 45
M  V30 27 1 10 46
M  V30 28 1 10 47
M  V30 29 1 11 12
M  V30 30 1 11 48
M  V30 31 2 12 13
M  V30 32 1 12 14
M  V30 33 1 13 17
M  V30 34 2 14 15
M  V30 35 1 14 49
M  V30 36 1 15 16
M  V30 37 1 15 50
M  V30 38 1 16 17
M  V30 39 2 16 18
M  V30 40 1 17 20
M  V30 41 1 18 19
M  V30 42 2 19 20
M  V30 43 1 19 51
M  V30 44 1 20 21
M  V30 45 2 21 22
M  V30 46 1 21 30
M  V30 47 1 22 23
M  V30 48 1 22 52
M  V30 49 2 23 24
M  V30 50 1 23 53
M  V30 51 1 24 25
M  V30 52 1 24 54
M  V30 53 1 25 26
M  V30 54 2 25 30
M  V30 55 1 26 27
M  V30 56 1 26 28
M  V30 57 1 26 29
M  V30 58 1 30 55
M  V30 END BOND
M  V30 END CTAB
M  END
> <s_m_entry_id>
477

> <s_m_entry_name>
result.1743

> <s_m_Source_Path>
D:\OneDrive - zju.edu.cn\DOC\A-Finished\LCK_VS\Planet\LCK-8617

> <s_m_Source_File>
glide-dock_SP_top1262_2_pv.maegz

> <i_m_Source_File_Index>
477

> <PLANET_affinity>
7.718

> <i_lp_mmshare_version>
54117

> <i_f3d_flags>
0

> <s_epik_input>
W09IXUMoW0NIM10pKFtDSDNdKVtDQEhdMVtDSDJdW0NIMl1bQ0BASF0oW0NIMl1bQ0gyXTEpW05IXWMoW2NIXVtjSF0yKW5uKGMyMyljKFtjSF1uMyktYzRbY0hdW2NIXVtjSF1jKEMoRikoRilGKVtjSF00

> <s_epik_cmdline>
J2VwaWtfcHl0aG9uJywgJy1waCcsICc3LjAnLCAnLXRuJywgJzgnLCAnLW1hJywgJzUwMCcsICctaW1hZScsICc8aW5maWxlLm1hZT4nLCAnLW9tYWUnLCAnPG91dGZpbGUubWFlPic=

> <r_epik_Ionization_Penalty>
  0.0277

> <r_epik_Ionization_Penalty_Charging>
  0.0000

> <r_epik_Ionization_Penalty_Neutral>
  0.0277

> <r_epik_State_Penalty>
  0.0226

> <r_epik_Charging_Adjusted_Penalty>
0.0226259

> <i_epik_Tot_Q>
0

> <i_epik_Tot_abs_Q>
0

> <s_lp_Force_Field>
S-OPLS

> <r_lp_Energy>
36.3421

> <b_lp_Chiralities_Consistent>
1

> <s_lp_Variant>
OC(C)(C)[C@H]1CC[C@H](NC2=NN3C(C=C2)=NC=C3C4=CC=CC(C(F)(F)F)=C4)CC1-1

> <s_i_glide_gridfile>
glide-grid_1

> <i_i_glide_lignum>
1625

> <i_i_glide_rotatable_bonds>
6

> <r_i_docking_score>
-8.05503629564924

> <r_i_glide_ligand_efficiency>
-0.268501209854975

> <r_i_glide_ligand_efficiency_sa>
-0.834295686203448

> <r_i_glide_ligand_efficiency_ln>
-1.83019201302151

> <r_i_glide_gscore>
-8.07763629564924

> <r_i_glide_lipo>
-2.94728174982702

> <r_i_glide_hbond>
-0.22249877464263

> <r_i_glide_metal>
0

> <r_i_glide_rewards>
-2.81665051300358

> <r_i_glide_evdw>
-40.2927780151367

> <r_i_glide_ecoul>
-3.52188372612

> <r_i_glide_erotb>
0.451716201498823

> <r_i_glide_esite>
0

> <r_i_glide_emodel>
-64.9876757716698

> <r_i_glide_energy>
-43.8146617412567

> <r_i_glide_einternal>
4.56057071685791

> <i_i_glide_confnum>
39

> <i_i_glide_posenum>
250

> <r_i_glide_eff_state_penalty>
0.0226

> <r_lp_tautomer_probability>
1

> <s_m_subgroup_title>
glide-dock_SP_top1262_2_pv

> <s_m_subgroupid>
glide-dock_SP_top1262_2_pv

> <b_m_subgroup_collapsed>
0

$$$$
OC[C@H]([C@@H](O)[C@H](O)[C@@H]1O)O[C@@H]1OC(C=C2)=C(C3=CC(CC(O)=O)=CC=C3)C=C...
                    3D
 Schrodinger Suite 2021-3.
  0  0  0     0  0            999 V3000
M  V30 BEGIN CTAB
M  V30 COUNTS 114 119 0 0 0
M  V30 BEGIN ATOM
M  V30 1 O  21.2815 47.1434 87.8056 0
M  V30 2 C  20.3390 46.9572 88.8451 0
M  V30 3 C  20.4480 45.5266 89.4169 0 CFG=2
M  V30 4 C  19.2571 45.1169 90.3170 0 CFG=1
M  V30 5 O  18.0038 45.1656 89.6425 0
M  V30 6 C  19.5015 43.7124 90.9106 0 CFG=2
M  V30 7 O  18.4611 43.3261 91.7915 0
M  V30 8 C  20.9140 43.5725 91.5406 0 CFG=2
M  V30 9 O  21.0358 44.2083 92.8027 0
M  V30 10 C  21.9898 44.0950 90.5682 0 CFG=2
M  V30 11 O  21.6743 45.4077 90.1553 0
M  V30 12 O  22.0934 43.1842 89.5012 0
M  V30 13 C  22.9273 43.4356 88.4175 0
M  V30 14 C  23.9176 44.4339 88.4573 0
M  V30 15 C  24.7503 44.6635 87.3696 0
M  V30 16 C  24.6257 43.8958 86.2153 0
M  V30 17 C  23.6422 42.9050 86.1634 0
M  V30 18 C  22.7855 42.6495 87.2478 0
M  V30 19 C  21.7391 41.5796 87.1097 0
M  V30 20 C  21.9786 40.3995 86.3831 0
M  V30 21 C  20.9909 39.4183 86.2208 0
M  V30 22 C  21.3006 38.1792 85.3667 0
M  V30 23 C  20.1125 37.5983 84.5588 0
M  V30 24 O  19.2715 38.3695 84.0443 0 CHG=-1
M  V30 25 O  20.0725 36.3566 84.4445 0
M  V30 26 C  19.7550 39.5933 86.8568 0
M  V30 27 C  19.4837 40.7616 87.5590 0
M  V30 28 C  20.4656 41.7397 87.6659 0
M  V30 29 C  25.5255 44.1366 85.0039 0
M  V30 30 C  27.0191 44.3673 85.3086 0
M  V30 31 C  27.6608 43.2736 86.1811 0
M  V30 32 C  29.1707 43.4879 86.3983 0
M  V30 33 C  29.7383 42.7154 87.6067 0
M  V30 34 C  29.5399 41.1853 87.5695 0
M  V30 35 C  30.1900 40.4715 86.3904 0
M  V30 36 C  31.5209 40.7176 86.0511 0
M  V30 37 C  32.1119 40.0425 84.9865 0
M  V30 38 C  31.3876 39.0987 84.2395 0
M  V30 39 C  30.0545 38.8030 84.6130 0
M  V30 40 C  29.4759 39.5112 85.6744 0
M  V30 41 C  29.2608 37.7310 83.9345 0
M  V30 42 C  27.8859 37.8637 83.6748 0
M  V30 43 C  27.1731 36.8512 83.0159 0
M  V30 44 C  25.6829 37.0211 82.7235 0
M  V30 45 C  24.8214 35.9048 83.3519 0
M  V30 46 O  24.0825 36.2299 84.3112 0 CHG=-1
M  V30 47 O  24.8718 34.7572 82.8428 0
M  V30 48 C  27.8563 35.7136 82.5787 0
M  V30 49 C  29.2059 35.5573 82.8418 0
M  V30 50 C  29.8810 36.5408 83.5476 0
M  V30 51 O  31.8996 38.4614 83.1158 0
M  V30 52 C  33.2418 38.5855 82.7254 0 CFG=1
M  V30 53 O  34.0982 37.7670 83.5035 0
M  V30 54 C  33.8978 36.3465 83.3608 0 CFG=2
M  V30 55 C  34.7801 35.5713 84.3617 0
M  V30 56 O  34.1889 35.6039 85.6436 0
M  V30 57 C  34.0687 35.8909 81.8979 0 CFG=1
M  V30 58 O  33.8135 34.5024 81.7346 0
M  V30 59 C  33.1218 36.7118 81.0061 0 CFG=2
M  V30 60 O  33.2829 36.3562 79.6438 0
M  V30 61 C  33.3179 38.2268 81.2313 0 CFG=2
M  V30 62 O  34.5235 38.6931 80.6470 0
M  V30 63 H  21.0296 46.5396 87.0934 0
M  V30 64 H  20.4914 47.7038 89.6241 0
M  V30 65 H  19.3488 47.1321 88.4241 0
M  V30 66 H  20.4880 44.8432 88.5715 0
M  V30 67 H  19.1816 45.8378 91.1320 0
M  V30 68 H  18.0794 44.7670 88.7570 0
M  V30 69 H  19.4379 42.9980 90.0947 0
M  V30 70 H  17.6534 43.7534 91.4789 0
M  V30 71 H  21.1293 42.5188 91.7253 0
M  V30 72 H  20.4698 44.9859 92.7988 0
M  V30 73 H  22.9646 44.1685 91.0542 0
M  V30 74 H  24.0560 45.0509 89.3292 0
M  V30 75 H  25.4906 45.4439 87.4328 0
M  V30 76 H  23.5261 42.3384 85.2516 0
M  V30 77 H  22.9429 40.2407 85.9201 0
M  V30 78 H  22.0750 38.4187 84.6355 0
M  V30 79 H  21.7184 37.4187 86.0288 0
M  V30 80 H  18.9749 38.8526 86.7602 0
M  V30 81 H  18.4963 40.9264 87.9721 0
M  V30 82 H  20.1985 42.6701 88.1351 0
M  V30 83 H  25.4392 43.2953 84.3144 0
M  V30 84 H  25.1359 45.0079 84.4806 0
M  V30 85 H  27.5601 44.4369 84.3625 0
M  V30 86 H  27.1499 45.3358 85.7946 0
M  V30 87 H  27.1622 43.2493 87.1485 0
M  V30 88 H  27.4945 42.2943 85.7290 0
M  V30 89 H  29.7129 43.2224 85.4879 0
M  V30 90 H  29.3680 44.5487 86.5558 0
M  V30 91 H  30.7977 42.9518 87.7110 0
M  V30 92 H  29.2724 43.1012 88.5132 0
M  V30 93 H  29.9422 40.7573 88.4868 0
M  V30 94 H  28.4711 40.9669 87.5932 0
M  V30 95 H  32.1049 41.4368 86.6068 0
M  V30 96 H  33.1396 40.2780 84.7679 0
M  V30 97 H  28.4601 39.2899 85.9727 0
M  V30 98 H  27.3649 38.7626 83.9744 0
M  V30 99 H  25.3474 38.0014 83.0618 0
M  V30 100 H  25.5287 37.0193 81.6435 0
M  V30 101 H  27.3415 34.9319 82.0440 0
M  V30 102 H  29.7172 34.6610 82.5289 0
M  V30 103 H  30.9047 36.3680 83.7996 0
M  V30 104 H  33.6100 39.6000 82.8661 0
M  V30 105 H  32.8782 36.1107 83.6341 0
M  V30 106 H  34.8498 34.5169 84.0897 0
M  V30 107 H  35.7984 35.9586 84.3892 0
M  V30 108 H  34.4840 34.8191 86.1352 0
M  V30 109 H  35.1008 36.0603 81.5858 0
M  V30 110 H  33.8956 34.2820 80.8018 0
M  V30 111 H  32.0937 36.4507 81.2658 0
M  V30 112 H  32.5595 35.7632 79.4039 0
M  V30 113 H  32.5242 38.7712 80.7180 0
M  V30 114 H  34.8118 38.0129 80.0238 0
M  V30 END ATOM
M  V30 BEGIN BOND
M  V30 1 1 1 2
M  V30 2 1 1 63
M  V30 3 1 2 3
M  V30 4 1 2 64
M  V30 5 1 2 65
M  V30 6 1 3 4
M  V30 7 1 3 11
M  V30 8 1 3 66
M  V30 9 1 4 5
M  V30 10 1 4 6
M  V30 11 1 4 67
M  V30 12 1 5 68
M  V30 13 1 6 7
M  V30 14 1 6 8
M  V30 15 1 6 69
M  V30 16 1 7 70
M  V30 17 1 8 9
M  V30 18 1 8 10
M  V30 19 1 8 71
M  V30 20 1 9 72
M  V30 21 1 10 11
M  V30 22 1 10 12
M  V30 23 1 10 73
M  V30 24 1 12 13
M  V30 25 2 13 14
M  V30 26 1 13 18
M  V30 27 1 14 15
M  V30 28 1 14 74
M  V30 29 2 15 16
M  V30 30 1 15 75
M  V30 31 1 16 17
M  V30 32 1 16 29
M  V30 33 2 17 18
M  V30 34 1 17 76
M  V30 35 1 18 19
M  V30 36 2 19 20
M  V30 37 1 19 28
M  V30 38 1 20 21
M  V30 39 1 20 77
M  V30 40 1 21 22
M  V30 41 2 21 26
M  V30 42 1 22 23
M  V30 43 1 22 78
M  V30 44 1 22 79
M  V30 45 1 23 24
M  V30 46 2 23 25
M  V30 47 1 26 27
M  V30 48 1 26 80
M  V30 49 2 27 28
M  V30 50 1 27 81
M  V30 51 1 28 82
M  V30 52 1 29 30
M  V30 53 1 29 83
M  V30 54 1 29 84
M  V30 55 1 30 31
M  V30 56 1 30 85
M  V30 57 1 30 86
M  V30 58 1 31 32
M  V30 59 1 31 87
M  V30 60 1 31 88
M  V30 61 1 32 33
M  V30 62 1 32 89
M  V30 63 1 32 90
M  V30 64 1 33 34
M  V30 65 1 33 91
M  V30 66 1 33 92
M  V30 67 1 34 35
M  V30 68 1 34 93
M  V30 69 1 34 94
M  V30 70 2 35 36
M  V30 71 1 35 40
M  V30 72 1 36 37
M  V30 73 1 36 95
M  V30 74 2 37 38
M  V30 75 1 37 96
M  V30 76 1 38 39
M  V30 77 1 38 51
M  V30 78 2 39 40
M  V30 79 1 39 41
M  V30 80 1 40 97
M  V30 81 2 41 42
M  V30 82 1 41 50
M  V30 83 1 42 43
M  V30 84 1 42 98
M  V30 85 1 43 44
M  V30 86 2 43 48
M  V30 87 1 44 45
M  V30 88 1 44 99
M  V30 89 1 44 100
M  V30 90 1 45 46
M  V30 91 2 45 47
M  V30 92 1 48 49
M  V30 93 1 48 101
M  V30 94 2 49 50
M  V30 95 1 49 102
M  V30 96 1 50 103
M  V30 97 1 51 52
M  V30 98 1 52 53
M  V30 99 1 52 61
M  V30 100 1 52 104
M  V30 101 1 53 54
M  V30 102 1 54 55
M  V30 103 1 54 57
M  V30 104 1 54 105
M  V30 105 1 55 56
M  V30 106 1 55 106
M  V30 107 1 55 107
M  V30 108 1 56 108
M  V30 109 1 57 58
M  V30 110 1 57 59
M  V30 111 1 57 109
M  V30 112 1 58 110
M  V30 113 1 59 60
M  V30 114 1 59 61
M  V30 115 1 59 111
M  V30 116 1 60 112
M  V30 117 1 61 62
M  V30 118 1 61 113
M  V30 119 1 62 114
M  V30 END BOND
M  V30 END CTAB
M  END
> <s_m_entry_id>
480

> <s_m_entry_name>
result.5049

> <s_m_Source_Path>
D:\OneDrive - zju.edu.cn\DOC\A-Finished\LCK_VS\Planet\LCK-8617

> <s_m_Source_File>
glide-dock_SP_top1262_2_pv.maegz

> <i_m_Source_File_Index>
480

> <PLANET_affinity>
9.237

> <i_lp_mmshare_version>
54117

> <i_f3d_flags>
0

> <s_epik_input>
W09IXVtDSDJdW0NAQEhdMVtDQEBIXShbT0hdKVtDQEhdKFtPSF0pW0NASF0oW09IXSlbQ0BIXShPMSlPYzJbY0hdW2NIXWMoW2NIXWMyLWMzW2NIXWMoW0NIMl1DKD1PKVtPSF0pW2NIXVtjSF1bY0hdMylbQ0gyXVtDSDJdW0NIMl1bQ0gyXVtDSDJdW0NIMl1jNFtjSF1bY0hdYyhjKFtjSF00KS1jNVtjSF1jKFtDSDJdQyg9TylbT0hdKVtjSF1bY0hdW2NIXTUpT1tDQEhdNk9bQ0BIXShbQ0gyXVtPSF0pW0NAQEhdKFtPSF0pW0NASF0oW09IXSlbQ0BASF02W09IXQ==

> <s_epik_cmdline>
J2VwaWtfcHl0aG9uJywgJy1waCcsICc3LjAnLCAnLXRuJywgJzgnLCAnLW1hJywgJzUwMCcsICctaW1hZScsICc8aW5maWxlLm1hZT4nLCAnLW9tYWUnLCAnPG91dGZpbGUubWFlPic=

> <r_epik_Ionization_Penalty>
  0.0023

> <r_epik_Ionization_Penalty_Charging>
  0.0023

> <r_epik_Ionization_Penalty_Neutral>
  0.0000

> <r_epik_State_Penalty>
  0.0000

> <r_epik_Charging_Adjusted_Penalty>
0.00225174

> <i_epik_Tot_Q>
-2

> <i_epik_Tot_abs_Q>
2

> <s_epik_Chemistry_Notes>
This compound contains an acetal/aminal-like group ( X-CH(R)-Y where X, Y are N, S, or O) that may be acid/base labile, releasing an aldehyde.

> <s_lp_Force_Field>
S-OPLS

> <r_lp_Energy>
79.0788

> <b_lp_Chiralities_Consistent>
1

> <s_lp_Variant>
OC[C@H]([C@@H](O)[C@H](O)[C@@H]1O)O[C@@H]1OC(C=C2)=C(C3=CC(CC(O)=O)=CC=C3)C=C...-1

> <s_i_glide_gridfile>
glide-grid_1

> <i_i_glide_lignum>
434

> <i_i_glide_rotatable_bonds>
27

> <r_i_docking_score>
-8.05096322265602

> <r_i_glide_ligand_efficiency>
-0.12985424552671

> <r_i_glide_ligand_efficiency_sa>
-0.513949028144499

> <r_i_glide_ligand_efficiency_ln>
-1.57026569191149

> <r_i_glide_gscore>
-8.05096322265602

> <r_i_glide_lipo>
-1.60626637663037

> <r_i_glide_hbond>
-0.222171735403868

> <r_i_glide_metal>
0

> <r_i_glide_rewards>
-0.776306871709842

> <r_i_glide_evdw>
-45.5917434692383

> <r_i_glide_ecoul>
-22.9566059112549

> <r_i_glide_erotb>
0.289715131309857

> <r_i_glide_esite>
-0.0128553100716574

> <r_i_glide_emodel>
-101.555168299096

> <r_i_glide_energy>
-68.5483493804932

> <r_i_glide_einternal>
12.5018281936646

> <i_i_glide_confnum>
966

> <i_i_glide_posenum>
383

> <r_i_glide_eff_state_penalty>
0

> <r_lp_tautomer_probability>
1

> <s_m_subgroup_title>
glide-dock_SP_top1262_2_pv

> <s_m_subgroupid>
glide-dock_SP_top1262_2_pv

> <b_m_subgroup_collapsed>
0

$$$$
O=C(C(SC(N1C=NC2=CC=C(C=C12)CN3CCN(CC3)C)=C4)=C4O[C@@H](C5=CC=CC=C5C(F)(F)F)C)N
                    3D
 Schrodinger Suite 2021-3.
  0  0  0     0  0            999 V3000
M  V30 BEGIN CTAB
M  V30 COUNTS 67 71 0 0 0
M  V30 BEGIN ATOM
M  V30 1 C  32.4828 40.2246 83.4463 0
M  V30 2 C  32.9567 41.1367 82.2978 0
M  V30 3 N  33.7587 40.3631 81.3429 0 CFG=2
M  V30 4 C  34.3209 41.2461 80.3227 0
M  V30 5 C  32.8905 39.3653 80.7040 0
M  V30 6 C  32.3309 38.3680 81.7446 0
M  V30 7 N  31.5593 39.1314 82.8583 0 CHG=1
M  V30 8 C  31.0596 38.1792 83.9764 0
M  V30 9 C  29.8827 37.2958 83.5758 0
M  V30 10 C  30.1298 36.1316 82.8436 0
M  V30 11 C  29.0973 35.2912 82.4434 0
M  V30 12 C  28.5831 37.6352 83.9890 0
M  V30 13 C  27.5458 36.7577 83.6305 0
M  V30 14 C  27.7940 35.6042 82.8382 0
M  V30 15 N  26.1808 36.6977 83.8984 0
M  V30 16 C  25.7333 35.5694 83.2323 0
M  V30 17 N  26.6443 34.9125 82.5802 0
M  V30 18 C  25.3650 37.4775 84.6936 0
M  V30 19 S  25.9099 38.4740 86.0097 0
M  V30 20 C  24.2676 38.9256 86.4047 0
M  V30 21 C  24.0121 39.7878 87.5286 0
M  V30 22 O  24.8130 39.9568 88.4439 0
M  V30 23 N  22.8421 40.4285 87.4929 0
M  V30 24 C  23.9791 37.5005 84.5971 0
M  V30 25 C  23.3526 38.2252 85.6083 0
M  V30 26 O  21.9889 38.2600 85.7346 0
M  V30 27 C  21.4304 37.1479 86.4467 0 CFG=2
M  V30 28 C  21.8270 35.7439 85.9358 0
M  V30 29 C  19.9118 37.2645 86.5885 0
M  V30 30 C  19.3852 36.6803 87.7439 0
M  V30 31 C  18.0364 36.7581 88.0436 0
M  V30 32 C  17.1733 37.4084 87.1747 0
M  V30 33 C  17.6652 37.9572 85.9934 0
M  V30 34 C  19.0297 37.8837 85.6644 0
M  V30 35 C  19.4739 38.4302 84.2972 0
M  V30 36 F  18.4243 38.6356 83.4973 0
M  V30 37 F  20.0912 39.6001 84.4517 0
M  V30 38 F  20.2831 37.5814 83.6567 0
M  V30 39 H  31.8910 40.7914 84.1701 0
M  V30 40 H  33.3111 39.7297 83.9595 0
M  V30 41 H  32.0835 41.5607 81.8027 0
M  V30 42 H  33.5376 41.9652 82.7049 0
M  V30 43 H  34.9567 40.6789 79.6419 0
M  V30 44 H  33.5463 41.7396 79.7314 0
M  V30 45 H  34.9439 42.0144 80.7780 0
M  V30 46 H  33.4593 38.8120 79.9554 0
M  V30 47 H  32.0819 39.8575 80.1629 0
M  V30 48 H  33.1217 37.7861 82.2202 0
M  V30 49 H  31.6205 37.6928 81.2667 0
M  V30 50 H  30.7820 38.8279 84.8111 0
M  V30 51 H  31.9237 37.5852 84.2827 0
M  V30 52 H  31.1378 35.8666 82.5669 0
M  V30 53 H  29.3005 34.4054 81.8579 0
M  V30 54 H  28.4006 38.5190 84.5827 0
M  V30 55 H  24.6965 35.2683 83.2945 0
M  V30 56 H  22.1823 40.2381 86.7505 0
M  V30 57 H  22.6269 41.1042 88.2048 0
M  V30 58 H  23.4069 36.9489 83.8666 0
M  V30 59 H  21.8357 37.2565 87.4561 0
M  V30 60 H  21.2864 34.9552 86.4603 0
M  V30 61 H  21.6324 35.6316 84.8714 0
M  V30 62 H  22.8841 35.5570 86.1087 0
M  V30 63 H  20.0325 36.1772 88.4429 0
M  V30 64 H  17.6804 36.3267 88.9646 0
M  V30 65 H  16.1210 37.4830 87.4104 0
M  V30 66 H  16.9585 38.4392 85.3325 0
M  V30 67 H  30.7646 39.5934 82.4359 0
M  V30 END ATOM
M  V30 BEGIN BOND
M  V30 1 1 1 2
M  V30 2 1 1 7
M  V30 3 1 1 39
M  V30 4 1 1 40
M  V30 5 1 2 3
M  V30 6 1 2 41
M  V30 7 1 2 42
M  V30 8 1 3 4
M  V30 9 1 3 5
M  V30 10 1 4 43
M  V30 11 1 4 44
M  V30 12 1 4 45
M  V30 13 1 5 6
M  V30 14 1 5 46
M  V30 15 1 5 47
M  V30 16 1 6 7
M  V30 17 1 6 48
M  V30 18 1 6 49
M  V30 19 1 7 8
M  V30 20 1 7 67
M  V30 21 1 8 9
M  V30 22 1 8 50
M  V30 23 1 8 51
M  V30 24 2 9 10
M  V30 25 1 9 12
M  V30 26 1 10 11
M  V30 27 1 10 52
M  V30 28 2 11 14
M  V30 29 1 11 53
M  V30 30 2 12 13
M  V30 31 1 12 54
M  V30 32 1 13 14
M  V30 33 1 13 15
M  V30 34 1 14 17
M  V30 35 1 15 16
M  V30 36 1 15 18
M  V30 37 2 16 17
M  V30 38 1 16 55
M  V30 39 1 18 19
M  V30 40 2 18 24
M  V30 41 1 19 20
M  V30 42 1 20 21
M  V30 43 2 20 25
M  V30 44 2 21 22
M  V30 45 1 21 23
M  V30 46 1 23 56
M  V30 47 1 23 57
M  V30 48 1 24 25
M  V30 49 1 24 58
M  V30 50 1 25 26
M  V30 51 1 26 27
M  V30 52 1 27 28
M  V30 53 1 27 29
M  V30 54 1 27 59
M  V30 55 1 28 60
M  V30 56 1 28 61
M  V30 57 1 28 62
M  V30 58 2 29 30
M  V30 59 1 29 34
M  V30 60 1 30 31
M  V30 61 1 30 63
M  V30 62 2 31 32
M  V30 63 1 31 64
M  V30 64 1 32 33
M  V30 65 1 32 65
M  V30 66 2 33 34
M  V30 67 1 33 66
M  V30 68 1 34 35
M  V30 69 1 35 36
M  V30 70 1 35 37
M  V30 71 1 35 38
M  V30 END BOND
M  V30 END CTAB
M  END
> <s_m_entry_id>
483

> <s_m_entry_name>
result.1733

> <s_m_Source_Path>
D:\OneDrive - zju.edu.cn\DOC\A-Finished\LCK_VS\Planet\LCK-8617

> <s_m_Source_File>
glide-dock_SP_top1262_2_pv.maegz

> <i_m_Source_File_Index>
483

> <PLANET_affinity>
7.807

> <i_lp_mmshare_version>
54117

> <i_f3d_flags>
0

> <s_epik_input>
W0NIM11OMVtDSDJdW0NIMl1OKFtDSDJdW0NIMl0xKVtDSDJdYyhbY0hdMilbY0hdW2NIXWMoYzIzKW5bY0hdbjMtYzRzYyhDKD1PKVtOSDJdKWMoW2NIXTQpT1tDQEhdKFtDSDNdKWM1W2NIXVtjSF1bY0hdW2NIXWM1QyhGKShGKUY=

> <s_epik_cmdline>
J2VwaWtfcHl0aG9uJywgJy1waCcsICc3LjAnLCAnLXRuJywgJzgnLCAnLW1hJywgJzUwMCcsICctaW1hZScsICc8aW5maWxlLm1hZT4nLCAnLW9tYWUnLCAnPG91dGZpbGUubWFlPic=

> <r_epik_Ionization_Penalty>
  0.0416

> <r_epik_Ionization_Penalty_Charging>
  0.0155

> <r_epik_Ionization_Penalty_Neutral>
  0.0262

> <r_epik_State_Penalty>
  0.2273

> <r_epik_Charging_Adjusted_Penalty>
0.242772

> <i_epik_Tot_Q>
1

> <i_epik_Tot_abs_Q>
1

> <s_lp_Force_Field>
S-OPLS

> <r_lp_Energy>
51.1635

> <b_lp_Chiralities_Consistent>
1

> <s_lp_Variant>
O=C(C(SC(N1C=NC2=CC=C(C=C12)CN3CCN(CC3)C)=C4)=C4O[C@@H](C5=CC=CC=C5C(F)(F)F)C)N-1

> <s_i_glide_gridfile>
glide-grid_1

> <i_i_glide_lignum>
1498

> <i_i_glide_rotatable_bonds>
8

> <r_i_docking_score>
-8.04720287553258

> <r_i_glide_ligand_efficiency>
-0.211768496724542

> <r_i_glide_ligand_efficiency_sa>
-0.711960477059423

> <r_i_glide_ligand_efficiency_ln>
-1.7352136646896

> <r_i_glide_gscore>
-8.27450287553258

> <r_i_glide_lipo>
-3.65294880208225

> <r_i_glide_hbond>
-0.0337240248698181

> <r_i_glide_metal>
0

> <r_i_glide_rewards>
-1.864697743497

> <r_i_glide_evdw>
-48.8515586853027

> <r_i_glide_ecoul>
-4.65771579742432

> <r_i_glide_erotb>
0.418726799988287

> <r_i_glide_esite>
-0.000623801193023457

> <r_i_glide_emodel>
-83.9867540451594

> <r_i_glide_energy>
-53.5092744827271

> <r_i_glide_einternal>
5.06147575378418

> <i_i_glide_confnum>
61

> <i_i_glide_posenum>
96

> <r_i_glide_eff_state_penalty>
0.2273

> <s_m_subgroup_title>
glide-dock_SP_top1262_2_pv

> <s_m_subgroupid>
glide-dock_SP_top1262_2_pv

> <b_m_subgroup_collapsed>
0

$$$$
CC1=CC=CC(CC(N2CCC3=C2C=CC(C4=CN(C)C5=NC=NC(N)=C54)=C3F)=O)=N1
                    3D
 Schrodinger Suite 2021-3.
  0  0  0     0  0            999 V3000
M  V30 BEGIN CTAB
M  V30 COUNTS 52 56 0 0 0
M  V30 BEGIN ATOM
M  V30 1 C  18.0055 38.3552 83.6689 0
M  V30 2 C  18.2403 37.9018 85.0946 0
M  V30 3 C  17.2778 38.0967 86.0806 0
M  V30 4 C  17.4874 37.5568 87.3492 0
M  V30 5 C  18.6758 36.8869 87.6189 0
M  V30 6 C  19.6251 36.7837 86.5977 0
M  V30 7 N  19.4083 37.2581 85.3371 0
M  V30 8 C  20.9292 36.0570 86.8496 0
M  V30 9 C  22.1637 36.8803 86.4459 0
M  V30 10 O  22.5031 37.7681 87.2295 0
M  V30 11 N  22.8341 36.6029 85.2934 0
M  V30 12 C  22.2872 35.7231 84.2513 0
M  V30 13 C  23.4130 35.5209 83.2439 0
M  V30 14 C  24.1886 36.8756 85.0341 0
M  V30 15 C  24.5785 36.2416 83.8577 0
M  V30 16 C  25.0940 37.6938 85.7179 0
M  V30 17 C  26.4045 37.8057 85.2615 0
M  V30 18 C  26.8185 37.1359 84.1054 0
M  V30 19 C  25.8880 36.3657 83.3923 0
M  V30 20 F  26.2405 35.7325 82.2507 0
M  V30 21 C  28.2395 37.2630 83.6770 0
M  V30 22 C  29.0647 36.2392 83.2429 0
M  V30 23 N  30.3462 36.6844 83.0176 0
M  V30 24 C  31.4481 35.8596 82.5420 0
M  V30 25 C  29.0558 38.4524 83.6274 0
M  V30 26 C  30.3713 38.0502 83.2444 0
M  V30 27 C  28.8912 39.8397 83.8159 0
M  V30 28 N  27.6585 40.4161 84.0955 0
M  V30 29 N  29.9250 40.6994 83.6770 0
M  V30 30 C  31.1285 40.1770 83.3376 0
M  V30 31 N  31.4220 38.8730 83.0972 0
M  V30 32 H  17.2350 39.1223 83.6146 0
M  V30 33 H  17.6839 37.5155 83.0549 0
M  V30 34 H  18.9205 38.7567 83.2426 0
M  V30 35 H  16.3544 38.6167 85.8650 0
M  V30 36 H  16.7380 37.6753 88.1209 0
M  V30 37 H  18.8537 36.4621 88.5954 0
M  V30 38 H  21.0312 35.8134 87.9074 0
M  V30 39 H  20.8892 35.0981 86.3531 0
M  V30 40 H  22.0836 34.7567 84.6955 0
M  V30 41 H  21.3930 36.1427 83.7907 0
M  V30 42 H  23.6056 34.4610 83.0697 0
M  V30 43 H  23.1522 35.9563 82.2802 0
M  V30 44 H  24.8225 38.2240 86.6182 0
M  V30 45 H  27.1088 38.3939 85.8317 0
M  V30 46 H  28.8412 35.1897 83.1043 0
M  V30 47 H  32.3260 36.0380 83.1649 0
M  V30 48 H  31.1846 34.7993 82.5927 0
M  V30 49 H  31.6782 36.1251 81.5086 0
M  V30 50 H  26.8446 39.8255 84.1887 0
M  V30 51 H  27.6127 41.4155 84.2288 0
M  V30 52 H  31.9386 40.8851 83.2367 0
M  V30 END ATOM
M  V30 BEGIN BOND
M  V30 1 1 1 2
M  V30 2 1 1 32
M  V30 3 1 1 33
M  V30 4 1 1 34
M  V30 5 2 2 3
M  V30 6 1 2 7
M  V30 7 1 3 4
M  V30 8 1 3 35
M  V30 9 2 4 5
M  V30 10 1 4 36
M  V30 11 1 5 6
M  V30 12 1 5 37
M  V30 13 2 6 7
M  V30 14 1 6 8
M  V30 15 1 8 9
M  V30 16 1 8 38
M  V30 17 1 8 39
M  V30 18 2 9 10
M  V30 19 1 9 11
M  V30 20 1 11 12
M  V30 21 1 11 14
M  V30 22 1 12 13
M  V30 23 1 12 40
M  V30 24 1 12 41
M  V30 25 1 13 15
M  V30 26 1 13 42
M  V30 27 1 13 43
M  V30 28 2 14 15
M  V30 29 1 14 16
M  V30 30 1 15 19
M  V30 31 2 16 17
M  V30 32 1 16 44
M  V30 33 1 17 18
M  V30 34 1 17 45
M  V30 35 2 18 19
M  V30 36 1 18 21
M  V30 37 1 19 20
M  V30 38 2 21 22
M  V30 39 1 21 25
M  V30 40 1 22 23
M  V30 41 1 22 46
M  V30 42 1 23 24
M  V30 43 1 23 26
M  V30 44 1 24 47
M  V30 45 1 24 48
M  V30 46 1 24 49
M  V30 47 2 25 26
M  V30 48 1 25 27
M  V30 49 1 26 31
M  V30 50 1 27 28
M  V30 51 2 27 29
M  V30 52 1 28 50
M  V30 53 1 28 51
M  V30 54 1 29 30
M  V30 55 2 30 31
M  V30 56 1 30 52
M  V30 END BOND
M  V30 END CTAB
M  END
> <s_m_entry_id>
486

> <s_m_entry_name>
result.1995

> <s_m_Source_Path>
D:\OneDrive - zju.edu.cn\DOC\A-Finished\LCK_VS\Planet\LCK-8617

> <s_m_Source_File>
glide-dock_SP_top1262_2_pv.maegz

> <i_m_Source_File_Index>
486

> <PLANET_affinity>
8.284

> <i_lp_mmshare_version>
54117

> <i_f3d_flags>
0

> <s_epik_input>
W0NIM11jMVtjSF1bY0hdW2NIXWMobjEpW0NIMl1DKD1PKU4yW0NIMl1bQ0gyXWMoYzIzKWMoRiljKFtjSF1bY0hdMyktYzRbY0hdbihbQ0gzXSljKGM0NSluW2NIXW5jNVtOSDJd

> <s_epik_cmdline>
J2VwaWtfcHl0aG9uJywgJy1waCcsICc3LjAnLCAnLXRuJywgJzgnLCAnLW1hJywgJzUwMCcsICctaW1hZScsICc8aW5maWxlLm1hZT4nLCAnLW9tYWUnLCAnPG91dGZpbGUubWFlPic=

> <r_epik_Ionization_Penalty>
  0.0123

> <r_epik_Ionization_Penalty_Charging>
  0.0000

> <r_epik_Ionization_Penalty_Neutral>
  0.0123

> <r_epik_State_Penalty>
  0.0063

> <r_epik_Charging_Adjusted_Penalty>
0.00631925

> <i_epik_Tot_Q>
0

> <i_epik_Tot_abs_Q>
0

> <s_lp_Force_Field>
S-OPLS

> <r_lp_Energy>
42.8428

> <b_lp_Chiralities_Consistent>
1

> <s_lp_Variant>
CC1=CC=CC(CC(N2CCC3=C2C=CC(C4=CN(C)C5=NC=NC(N)=C54)=C3F)=O)=N1-1

> <s_i_glide_gridfile>
glide-grid_1

> <i_i_glide_lignum>
985

> <i_i_glide_rotatable_bonds>
4

> <r_i_docking_score>
-8.04119550190368

> <r_i_glide_ligand_efficiency>
-0.259393403287215

> <r_i_glide_ligand_efficiency_sa>
-0.814853417511684

> <r_i_glide_ligand_efficiency_ln>
-1.81353601872592

> <r_i_glide_gscore>
-8.04749550190368

> <r_i_glide_lipo>
-3.8966589523047

> <r_i_glide_hbond>
0

> <r_i_glide_metal>
0

> <r_i_glide_rewards>
-1.87483806501574

> <r_i_glide_evdw>
-47.4424743652344

> <r_i_glide_ecoul>
-2.17983627319336

> <r_i_glide_erotb>
0.455652061507459

> <r_i_glide_esite>
-0.0325513868499695

> <r_i_glide_emodel>
-73.6411314464019

> <r_i_glide_energy>
-49.6223106384277

> <r_i_glide_einternal>
1.8355952501297

> <i_i_glide_confnum>
32

> <i_i_glide_posenum>
190

> <r_i_glide_eff_state_penalty>
0.0063

> <s_m_subgroup_title>
glide-dock_SP_top1262_2_pv

> <s_m_subgroupid>
glide-dock_SP_top1262_2_pv

> <b_m_subgroup_collapsed>
0

$$$$
O=C(NC1=CC=CC(C2=C(C3=CC=CC=C3)OC4=NC=NC(N[C@@H](C5=CC=CC=C5)CO)=C42)=C1)/C=C...
                    3D
 Schrodinger Suite 2021-3.
  0  0  0     0  0            999 V3000
M  V30 BEGIN CTAB
M  V30 COUNTS 72 76 0 0 0
M  V30 BEGIN ATOM
M  V30 1 C  22.0047 47.7001 87.3084 0
M  V30 2 N  22.9273 46.4651 87.4312 0 CHG=1
M  V30 3 C  22.0832 45.1862 87.6210 0
M  V30 4 C  23.8989 46.3720 86.2278 0
M  V30 5 C  24.6069 45.0348 86.0909 0
M  V30 6 C  24.1734 44.0780 85.2427 0
M  V30 7 C  24.8061 42.8017 85.0332 0
M  V30 8 O  24.8922 42.3452 83.8968 0
M  V30 9 N  25.2366 42.1742 86.1507 0
M  V30 10 C  25.8014 40.8887 86.2597 0
M  V30 11 C  26.5545 40.6212 87.4061 0
M  V30 12 C  27.1022 39.3566 87.6094 0
M  V30 13 C  26.8835 38.3455 86.6752 0
M  V30 14 C  26.1374 38.5895 85.5247 0
M  V30 15 C  25.5993 39.8624 85.3193 0
M  V30 16 C  25.8486 37.4893 84.5619 0
M  V30 17 C  26.7121 36.7569 83.7214 0
M  V30 18 O  26.0122 35.8272 82.9933 0
M  V30 19 C  28.1882 36.7959 83.4507 0
M  V30 20 C  28.7969 35.7710 82.7150 0
M  V30 21 C  30.1611 35.8078 82.4434 0
M  V30 22 C  30.9278 36.8701 82.9121 0
M  V30 23 C  30.3391 37.8975 83.6435 0
M  V30 24 C  28.9722 37.8631 83.9072 0
M  V30 25 C  24.5353 36.9734 84.3010 0
M  V30 26 C  24.7052 35.9609 83.3388 0
M  V30 27 C  23.2116 37.2041 84.7223 0
M  V30 28 N  22.1813 36.4960 84.1746 0
M  V30 29 C  22.5012 35.5565 83.2438 0
M  V30 30 N  23.7413 35.2253 82.7868 0
M  V30 31 N  22.9911 38.1618 85.7275 0
M  V30 32 C  21.7058 38.5040 86.3479 0 CFG=2
M  V30 33 C  21.9383 39.6279 87.3969 0
M  V30 34 O  20.7472 40.2317 87.8771 0
M  V30 35 C  20.9438 37.2964 86.9288 0
M  V30 36 C  19.5878 37.4451 87.2445 0
M  V30 37 C  18.8814 36.3966 87.8234 0
M  V30 38 C  19.5201 35.1817 88.0432 0
M  V30 39 C  20.8419 34.9881 87.6593 0
M  V30 40 C  21.5671 36.0594 87.1623 0
M  V30 41 H  21.3524 47.5472 86.4434 0
M  V30 42 H  22.6379 48.5813 87.1839 0
M  V30 43 H  21.4186 47.7703 88.2271 0
M  V30 44 H  21.6831 44.9261 86.6384 0
M  V30 45 H  22.7419 44.3988 87.9883 0
M  V30 46 H  21.2832 45.3875 88.3362 0
M  V30 47 H  23.2831 46.5558 85.3436 0
M  V30 48 H  24.6043 47.2007 86.3247 0
M  V30 49 H  25.4921 44.8940 86.6968 0
M  V30 50 H  23.2929 44.2393 84.6295 0
M  V30 51 H  25.2019 42.7036 87.0080 0
M  V30 52 H  26.7211 41.3895 88.1477 0
M  V30 53 H  27.6876 39.1549 88.4948 0
M  V30 54 H  27.2827 37.3599 86.8450 0
M  V30 55 H  24.9900 40.0236 84.4438 0
M  V30 56 H  28.2210 34.9375 82.3398 0
M  V30 57 H  30.6196 35.0156 81.8688 0
M  V30 58 H  31.9864 36.8982 82.6980 0
M  V30 59 H  30.9396 38.7243 83.9974 0
M  V30 60 H  28.5371 38.6798 84.4610 0
M  V30 61 H  21.6823 34.9775 82.8434 0
M  V30 62 H  23.7687 38.7772 85.9227 0
M  V30 63 H  21.1010 38.9300 85.5452 0
M  V30 64 H  22.4639 39.2212 88.2625 0
M  V30 65 H  22.5687 40.4191 86.9861 0
M  V30 66 H  20.3855 40.8047 87.1930 0
M  V30 67 H  19.0782 38.3815 87.0659 0
M  V30 68 H  17.8397 36.5179 88.0856 0
M  V30 69 H  18.9588 34.3566 88.4492 0
M  V30 70 H  21.3116 34.0257 87.8072 0
M  V30 71 H  22.6109 35.9028 86.9409 0
M  V30 72 H  23.4845 46.5815 88.2696 0
M  V30 END ATOM
M  V30 BEGIN BOND
M  V30 1 1 1 2
M  V30 2 1 1 41
M  V30 3 1 1 42
M  V30 4 1 1 43
M  V30 5 1 2 3
M  V30 6 1 2 4
M  V30 7 1 2 72
M  V30 8 1 3 44
M  V30 9 1 3 45
M  V30 10 1 3 46
M  V30 11 1 4 5
M  V30 12 1 4 47
M  V30 13 1 4 48
M  V30 14 2 5 6
M  V30 15 1 5 49
M  V30 16 1 6 7
M  V30 17 1 6 50
M  V30 18 2 7 8
M  V30 19 1 7 9
M  V30 20 1 9 10
M  V30 21 1 9 51
M  V30 22 2 10 11
M  V30 23 1 10 15
M  V30 24 1 11 12
M  V30 25 1 11 52
M  V30 26 2 12 13
M  V30 27 1 12 53
M  V30 28 1 13 14
M  V30 29 1 13 54
M  V30 30 2 14 15
M  V30 31 1 14 16
M  V30 32 1 15 55
M  V30 33 2 16 17
M  V30 34 1 16 25
M  V30 35 1 17 18
M  V30 36 1 17 19
M  V30 37 1 18 26
M  V30 38 2 19 20
M  V30 39 1 19 24
M  V30 40 1 20 21
M  V30 41 1 20 56
M  V30 42 2 21 22
M  V30 43 1 21 57
M  V30 44 1 22 23
M  V30 45 1 22 58
M  V30 46 2 23 24
M  V30 47 1 23 59
M  V30 48 1 24 60
M  V30 49 2 25 26
M  V30 50 1 25 27
M  V30 51 1 26 30
M  V30 52 2 27 28
M  V30 53 1 27 31
M  V30 54 1 28 29
M  V30 55 2 29 30
M  V30 56 1 29 61
M  V30 57 1 31 32
M  V30 58 1 31 62
M  V30 59 1 32 33
M  V30 60 1 32 35
M  V30 61 1 32 63
M  V30 62 1 33 34
M  V30 63 1 33 64
M  V30 64 1 33 65
M  V30 65 1 34 66
M  V30 66 2 35 36
M  V30 67 1 35 40
M  V30 68 1 36 37
M  V30 69 1 36 67
M  V30 70 2 37 38
M  V30 71 1 37 68
M  V30 72 1 38 39
M  V30 73 1 38 69
M  V30 74 2 39 40
M  V30 75 1 39 70
M  V30 76 1 40 71
M  V30 END BOND
M  V30 END CTAB
M  END
> <s_m_entry_id>
487

> <s_m_entry_name>
result.4497

> <s_m_Source_Path>
D:\OneDrive - zju.edu.cn\DOC\A-Finished\LCK_VS\Planet\LCK-8617

> <s_m_Source_File>
glide-dock_SP_top1262_2_pv.maegz

> <i_m_Source_File_Index>
487

> <PLANET_affinity>
8.582

> <i_lp_mmshare_version>
54117

> <i_f3d_flags>
0

> <s_epik_input>
W0NIM11OKFtDSDNdKVtDSDJdL1tDSF09W0NIXS9DKD1PKVtOSF1jMVtjSF1bY0hdW2NIXWMoW2NIXTEpLWMyYygtYzNbY0hdW2NIXVtjSF1bY0hdW2NIXTMpb2MoYzI0KW5bY0hdbmM0W05IXVtDQEhdKFtDSDJdW09IXSljNVtjSF1bY0hdW2NIXVtjSF1bY0hdNQ==

> <s_epik_cmdline>
J2VwaWtfcHl0aG9uJywgJy1waCcsICc3LjAnLCAnLXRuJywgJzgnLCAnLW1hJywgJzUwMCcsICctaW1hZScsICc8aW5maWxlLm1hZT4nLCAnLW9tYWUnLCAnPG91dGZpbGUubWFlPic=

> <r_epik_Ionization_Penalty>
  0.1646

> <r_epik_Ionization_Penalty_Charging>
  0.1646

> <r_epik_Ionization_Penalty_Neutral>
  0.0001

> <r_epik_State_Penalty>
  0.1828

> <r_epik_Charging_Adjusted_Penalty>
0.347365

> <i_epik_Tot_Q>
1

> <i_epik_Tot_abs_Q>
1

> <s_lp_Force_Field>
S-OPLS

> <r_lp_Energy>
67.9825

> <b_lp_Chiralities_Consistent>
1

> <s_lp_Variant>
O=C(NC1=CC=CC(C2=C(C3=CC=CC=C3)OC4=NC=NC(N[C@@H](C5=CC=CC=C5)CO)=C42)=C1)/C=C...-1

> <s_i_glide_gridfile>
glide-grid_1

> <i_i_glide_lignum>
752

> <i_i_glide_rotatable_bonds>
12

> <r_i_docking_score>
-8.04074779322642

> <r_i_glide_ligand_efficiency>
-0.201018694830661

> <r_i_glide_ligand_efficiency_sa>
-0.687474265140209

> <r_i_glide_ligand_efficiency_ln>
-1.71485487565086

> <r_i_glide_gscore>
-8.22354779322642

> <r_i_glide_lipo>
-4.15291587057398

> <r_i_glide_hbond>
-0.0169031858089227

> <r_i_glide_metal>
0

> <r_i_glide_rewards>
-0.558565989604242

> <r_i_glide_evdw>
-49.7831802368164

> <r_i_glide_ecoul>
-11.0595254898071

> <r_i_glide_erotb>
0.722095910282588

> <r_i_glide_esite>
-0.0691708222099735

> <r_i_glide_emodel>
-93.8243784259257

> <r_i_glide_energy>
-60.8427057266235

> <r_i_glide_einternal>
7.39769554138184

> <i_i_glide_confnum>
302

> <i_i_glide_posenum>
102

> <r_i_glide_eff_state_penalty>
0.1828

> <s_m_subgroup_title>
glide-dock_SP_top1262_2_pv

> <s_m_subgroupid>
glide-dock_SP_top1262_2_pv

> <b_m_subgroup_collapsed>
0

$$$$
CC(C(C1=CC(OC)=C(OC)C(OC)=C1)=C2)=NC=C2C3=CC=C(N4CCNCC4)C=C3
                    3D
 Schrodinger Suite 2021-3.
  0  0  0     0  0            999 V3000
M  V30 BEGIN CTAB
M  V30 COUNTS 61 64 0 0 0
M  V30 BEGIN ATOM
M  V30 1 C  20.7050 35.0590 87.7169 0
M  V30 2 O  20.5692 36.4766 87.6432 0
M  V30 3 C  21.4030 37.2039 86.8116 0
M  V30 4 C  22.3751 36.6223 85.9852 0
M  V30 5 C  21.2540 38.5977 86.7999 0
M  V30 6 O  20.3374 39.1863 87.6410 0
M  V30 7 C  19.0948 39.5047 87.0303 0
M  V30 8 C  22.0533 39.3983 85.9699 0
M  V30 9 O  21.8293 40.7633 85.9994 0
M  V30 10 C  22.5422 41.6180 85.1108 0
M  V30 11 C  23.0238 38.7833 85.1630 0
M  V30 12 C  23.1959 37.3962 85.1619 0
M  V30 13 C  24.2324 36.7577 84.3006 0
M  V30 14 C  23.9349 35.7704 83.3414 0
M  V30 15 C  22.5148 35.3626 82.9803 0
M  V30 16 C  25.5675 37.1829 84.3828 0
M  V30 17 C  26.5612 36.6364 83.5559 0
M  V30 18 C  26.1613 35.6021 82.7007 0
M  V30 19 N  24.8835 35.1744 82.5774 0
M  V30 20 C  27.9648 37.1545 83.5360 0
M  V30 21 C  28.2390 38.5046 83.7894 0
M  V30 22 C  29.5332 39.0071 83.6657 0
M  V30 23 C  30.5897 38.1698 83.2858 0
M  V30 24 C  30.3251 36.8135 83.0745 0
M  V30 25 C  29.0334 36.3145 83.1984 0
M  V30 26 N  31.8772 38.6599 83.0856 0
M  V30 27 C  32.4133 39.8784 83.7193 0
M  V30 28 C  32.4607 41.1074 82.7797 0
M  V30 29 N  33.2714 40.7565 81.5195 0 CHG=1
M  V30 30 C  32.6600 39.5155 80.8472 0
M  V30 31 C  32.6402 38.3502 81.8625 0
M  V30 32 H  19.9947 34.6661 88.4441 0
M  V30 33 H  20.4879 34.5833 86.7629 0
M  V30 34 H  21.7038 34.7639 88.0425 0
M  V30 35 H  22.5086 35.5546 85.9731 0
M  V30 36 H  18.4833 40.0458 87.7494 0
M  V30 37 H  19.2141 40.1441 86.1542 0
M  V30 38 H  18.5538 38.6037 86.7374 0
M  V30 39 H  22.1960 42.6435 85.2441 0
M  V30 40 H  22.3696 41.3477 84.0679 0
M  V30 41 H  23.6139 41.6026 85.3133 0
M  V30 42 H  23.6538 39.3766 84.5181 0
M  V30 43 H  21.7581 36.0221 83.4031 0
M  V30 44 H  22.3798 35.3888 81.8979 0
M  V30 45 H  22.3128 34.3485 83.3123 0
M  V30 46 H  25.8235 37.9619 85.0862 0
M  V30 47 H  26.8695 35.1225 82.0426 0
M  V30 48 H  27.4425 39.1879 84.0441 0
M  V30 49 H  29.6976 40.0605 83.8364 0
M  V30 50 H  31.1194 36.1342 82.8007 0
M  V30 51 H  28.8738 35.2624 83.0114 0
M  V30 52 H  31.8154 40.1316 84.5958 0
M  V30 53 H  33.4068 39.6587 84.1141 0
M  V30 54 H  32.9665 41.9566 83.2430 0
M  V30 55 H  31.4756 41.4387 82.4438 0
M  V30 56 H  34.2303 40.5669 81.7763 0
M  V30 57 H  33.2827 39.2971 79.9778 0
M  V30 58 H  31.6653 39.7999 80.4991 0
M  V30 59 H  33.6526 38.0466 82.1360 0
M  V30 60 H  32.2079 37.4861 81.3549 0
M  V30 61 H  33.2753 41.5389 80.8794 0
M  V30 END ATOM
M  V30 BEGIN BOND
M  V30 1 1 1 2
M  V30 2 1 1 32
M  V30 3 1 1 33
M  V30 4 1 1 34
M  V30 5 1 2 3
M  V30 6 2 3 4
M  V30 7 1 3 5
M  V30 8 1 4 12
M  V30 9 1 4 35
M  V30 10 1 5 6
M  V30 11 2 5 8
M  V30 12 1 6 7
M  V30 13 1 7 36
M  V30 14 1 7 37
M  V30 15 1 7 38
M  V30 16 1 8 9
M  V30 17 1 8 11
M  V30 18 1 9 10
M  V30 19 1 10 39
M  V30 20 1 10 40
M  V30 21 1 10 41
M  V30 22 2 11 12
M  V30 23 1 11 42
M  V30 24 1 12 13
M  V30 25 2 13 14
M  V30 26 1 13 16
M  V30 27 1 14 15
M  V30 28 1 14 19
M  V30 29 1 15 43
M  V30 30 1 15 44
M  V30 31 1 15 45
M  V30 32 2 16 17
M  V30 33 1 16 46
M  V30 34 1 17 18
M  V30 35 1 17 20
M  V30 36 2 18 19
M  V30 37 1 18 47
M  V30 38 2 20 21
M  V30 39 1 20 25
M  V30 40 1 21 22
M  V30 41 1 21 48
M  V30 42 2 22 23
M  V30 43 1 22 49
M  V30 44 1 23 24
M  V30 45 1 23 26
M  V30 46 2 24 25
M  V30 47 1 24 50
M  V30 48 1 25 51
M  V30 49 1 26 27
M  V30 50 1 26 31
M  V30 51 1 27 28
M  V30 52 1 27 52
M  V30 53 1 27 53
M  V30 54 1 28 29
M  V30 55 1 28 54
M  V30 56 1 28 55
M  V30 57 1 29 30
M  V30 58 1 29 56
M  V30 59 1 29 61
M  V30 60 1 30 31
M  V30 61 1 30 57
M  V30 62 1 30 58
M  V30 63 1 31 59
M  V30 64 1 31 60
M  V30 END BOND
M  V30 END CTAB
M  END
> <s_m_entry_id>
503

> <s_m_entry_name>
result.2952

> <s_m_Source_Path>
D:\OneDrive - zju.edu.cn\DOC\A-Finished\LCK_VS\Planet\LCK-8617

> <s_m_Source_File>
glide-dock_SP_top1262_2_pv.maegz

> <i_m_Source_File_Index>
503

> <PLANET_affinity>
7.17

> <i_lp_mmshare_version>
54117

> <i_f3d_flags>
0

> <s_epik_input>
W0NIM11PYzFjKE9bQ0gzXSlbY0hdYyhbY0hdYzFPW0NIM10pLWMyYyhbQ0gzXSluW2NIXWMoW2NIXTIpLWMzW2NIXVtjSF1jKFtjSF1bY0hdMylONFtDSDJdW0NIMl1bTkhdW0NIMl1bQ0gyXTQ=

> <s_epik_cmdline>
J2VwaWtfcHl0aG9uJywgJy1waCcsICc3LjAnLCAnLXRuJywgJzgnLCAnLW1hJywgJzUwMCcsICctaW1hZScsICc8aW5maWxlLm1hZT4nLCAnLW9tYWUnLCAnPG91dGZpbGUubWFlPic=

> <r_epik_Ionization_Penalty>
  0.0164

> <r_epik_Ionization_Penalty_Charging>
  0.0086

> <r_epik_Ionization_Penalty_Neutral>
  0.0078

> <r_epik_State_Penalty>
  0.0122

> <r_epik_Charging_Adjusted_Penalty>
0.02075

> <i_epik_Tot_Q>
1

> <i_epik_Tot_abs_Q>
1

> <s_lp_Force_Field>
S-OPLS

> <r_lp_Energy>
65.8672

> <b_lp_Chiralities_Consistent>
1

> <s_lp_Variant>
CC(C(C1=CC(OC)=C(OC)C(OC)=C1)=C2)=NC=C2C3=CC=C(N4CCNCC4)C=C3-1

> <s_i_glide_gridfile>
glide-grid_1

> <i_i_glide_lignum>
2431

> <i_i_glide_rotatable_bonds>
6

> <r_i_docking_score>
-8.01492008585056

> <r_i_glide_ligand_efficiency>
-0.258545809220986

> <r_i_glide_ligand_efficiency_sa>
-0.812190801913997

> <r_i_glide_ligand_efficiency_ln>
-1.80761010716115

> <r_i_glide_gscore>
-8.02712008585056

> <r_i_glide_lipo>
-3.3970729328949

> <r_i_glide_hbond>
-0.193775266088121

> <r_i_glide_metal>
0

> <r_i_glide_rewards>
-1.4574432515836

> <r_i_glide_evdw>
-42.7171096801758

> <r_i_glide_ecoul>
-7.85835933685303

> <r_i_glide_erotb>
0.335780749252807

> <r_i_glide_esite>
0

> <r_i_glide_emodel>
-77.5372509292441

> <r_i_glide_energy>
-50.5754690170288

> <r_i_glide_einternal>
1.19005525112152

> <i_i_glide_confnum>
110

> <i_i_glide_posenum>
389

> <r_i_glide_eff_state_penalty>
0.0122

> <r_lp_tautomer_probability>
1

> <s_m_subgroup_title>
glide-dock_SP_top1262_2_pv

> <s_m_subgroupid>
glide-dock_SP_top1262_2_pv

> <b_m_subgroup_collapsed>
0

$$$$
O=C(C1=CC(C2=C(N3C=CC=CC3=N2)C4=NC(NC5=CC(CC)=C(C=C5OC)N6CCC(CC6)N7CCN(CC7)S(...
                    3D
 Schrodinger Suite 2021-3.
  0  0  0     0  0            999 V3000
M  V30 BEGIN CTAB
M  V30 COUNTS 109 116 0 0 0
M  V30 BEGIN ATOM
M  V30 1 F  35.2802 42.2082 82.4474 0
M  V30 2 C  34.8061 42.9545 83.4732 0
M  V30 3 C  34.9565 44.3396 83.4298 0
M  V30 4 C  34.4827 45.1295 84.4761 0
M  V30 5 C  33.8511 44.5350 85.5672 0
M  V30 6 C  33.6933 43.1500 85.6186 0
M  V30 7 F  33.0492 42.6002 86.6766 0
M  V30 8 C  34.1847 42.3494 84.5729 0
M  V30 9 N  34.0368 40.9545 84.5786 0
M  V30 10 C  34.5664 40.1215 85.5003 0
M  V30 11 O  35.2516 40.4986 86.4539 0
M  V30 12 C  34.2819 38.6549 85.2685 0
M  V30 13 C  34.3268 38.1454 83.9619 0
M  V30 14 C  34.0141 36.8157 83.6710 0
M  V30 15 C  33.7075 35.9639 84.7369 0
M  V30 16 C  33.7174 36.4341 86.0495 0
M  V30 17 C  34.0088 37.7777 86.3359 0
M  V30 18 O  34.0259 38.2750 87.6270 0
M  V30 19 C  34.1664 37.3753 88.7192 0
M  V30 20 C  34.0598 36.3180 82.2503 0
M  V30 21 N  34.2793 35.0353 82.0309 0
M  V30 22 C  34.3582 34.9004 80.6894 0
M  V30 23 N  34.1728 36.1353 80.0444 0
M  V30 24 C  34.5912 33.7511 79.9137 0
M  V30 25 C  34.6450 33.8736 78.5248 0
M  V30 26 C  34.4757 35.1100 77.9092 0
M  V30 27 C  34.2316 36.2452 78.6778 0
M  V30 28 C  33.9238 37.0533 81.0465 0
M  V30 29 C  33.5837 38.4902 80.8078 0
M  V30 30 N  32.5505 38.9396 81.5599 0
M  V30 31 C  32.2376 40.2594 81.5270 0
M  V30 32 N  32.8813 41.1533 80.7348 0
M  V30 33 C  33.8848 40.6862 79.9472 0
M  V30 34 C  34.2840 39.3474 79.9551 0
M  V30 35 N  31.2020 40.7565 82.3557 0
M  V30 36 C  30.2112 40.1049 83.1328 0
M  V30 37 C  30.3062 38.7469 83.4486 0
M  V30 38 C  29.2462 38.0476 84.0091 0
M  V30 39 C  29.4618 36.5714 84.2335 0
M  V30 40 C  29.0923 35.6909 83.0263 0
M  V30 41 C  28.0679 38.7252 84.3649 0
M  V30 42 C  28.0106 40.0965 84.1717 0
M  V30 43 C  29.0502 40.7890 83.5496 0
M  V30 44 O  28.8831 42.1159 83.2504 0
M  V30 45 C  28.1924 42.9484 84.1820 0
M  V30 46 N  26.9490 38.1593 84.9471 0
M  V30 47 C  26.1929 37.0636 84.3330 0
M  V30 48 C  24.6910 37.3107 84.5436 0
M  V30 49 C  24.3712 37.3978 86.0439 0
M  V30 50 C  25.3043 38.3903 86.7705 0
M  V30 51 C  26.7855 38.1849 86.4045 0
M  V30 52 N  22.9007 37.7851 86.3375 0 CHG=1
M  V30 53 C  22.3484 38.9860 85.5171 0
M  V30 54 C  20.9496 39.3407 86.0529 0
M  V30 55 N  20.0781 38.1453 86.0518 0 CFG=1
M  V30 56 C  20.5771 36.9661 86.7963 0
M  V30 57 C  21.9713 36.5450 86.2957 0
M  V30 58 S  18.8666 37.9096 84.7879 0
M  V30 59 O  18.6920 39.1566 84.0449 0
M  V30 60 O  19.1944 36.6769 84.0622 0
M  V30 61 C  17.3441 37.6521 85.8558 0
M  V30 62 H  35.4344 44.8005 82.5786 0
M  V30 63 H  34.5917 46.2035 84.4339 0
M  V30 64 H  33.4680 45.1486 86.3697 0
M  V30 65 H  33.5205 40.5523 83.8109 0
M  V30 66 H  34.6247 38.7991 83.1569 0
M  V30 67 H  33.4818 34.9222 84.5588 0
M  V30 68 H  33.4973 35.7281 86.8355 0
M  V30 69 H  34.2989 37.9439 89.6399 0
M  V30 70 H  33.2833 36.7568 88.8428 0
M  V30 71 H  35.0370 36.7289 88.5973 0
M  V30 72 H  34.7078 32.7854 80.3841 0
M  V30 73 H  34.8056 32.9918 77.9186 0
M  V30 74 H  34.4948 35.1820 76.8312 0
M  V30 75 H  34.0556 37.2175 78.2453 0
M  V30 76 H  34.3874 41.4159 79.3273 0
M  V30 77 H  35.1182 39.0042 79.3634 0
M  V30 78 H  31.1149 41.7698 82.3499 0
M  V30 79 H  31.1889 38.1710 83.2439 0
M  V30 80 H  30.5155 36.3850 84.4434 0
M  V30 81 H  28.9204 36.3567 85.1446 0
M  V30 82 H  29.2946 34.6439 83.2429 0
M  V30 83 H  28.0469 35.7665 82.7407 0
M  V30 84 H  29.6886 35.9547 82.1514 0
M  V30 85 H  27.1070 40.6190 84.4503 0
M  V30 86 H  28.4655 43.9895 84.0065 0
M  V30 87 H  27.1117 42.8663 84.0577 0
M  V30 88 H  28.4518 42.7164 85.2165 0
M  V30 89 H  26.3901 37.0158 83.2605 0
M  V30 90 H  26.4840 36.1180 84.7956 0
M  V30 91 H  24.4460 38.2460 84.0436 0
M  V30 92 H  24.0731 36.5597 84.0489 0
M  V30 93 H  24.5854 36.4063 86.4435 0
M  V30 94 H  25.1477 38.3567 87.8490 0
M  V30 95 H  25.0551 39.4220 86.5196 0
M  V30 96 H  27.1780 37.2674 86.8376 0
M  V30 97 H  27.3653 39.0079 86.8272 0
M  V30 98 H  23.0429 39.8189 85.6275 0
M  V30 99 H  22.3016 38.6953 84.4653 0
M  V30 100 H  20.9958 39.7403 87.0669 0
M  V30 101 H  20.4892 40.1126 85.4336 0
M  V30 102 H  19.8714 36.1471 86.6483 0
M  V30 103 H  20.5801 37.1950 87.8629 0
M  V30 104 H  21.9551 36.1661 85.2718 0
M  V30 105 H  22.4115 35.7877 86.9472 0
M  V30 106 H  16.4834 37.5567 85.2153 0
M  V30 107 H  17.4686 36.7566 86.4608 0
M  V30 108 H  17.2165 38.5239 86.4989 0
M  V30 109 H  22.8884 38.0867 87.3018 0
M  V30 END ATOM
M  V30 BEGIN BOND
M  V30 1 1 1 2
M  V30 2 2 2 3
M  V30 3 1 2 8
M  V30 4 1 3 4
M  V30 5 1 3 62
M  V30 6 2 4 5
M  V30 7 1 4 63
M  V30 8 1 5 6
M  V30 9 1 5 64
M  V30 10 1 6 7
M  V30 11 2 6 8
M  V30 12 1 8 9
M  V30 13 1 9 10
M  V30 14 1 9 65
M  V30 15 2 10 11
M  V30 16 1 10 12
M  V30 17 2 12 13
M  V30 18 1 12 17
M  V30 19 1 13 14
M  V30 20 1 13 66
M  V30 21 2 14 15
M  V30 22 1 14 20
M  V30 23 1 15 16
M  V30 24 1 15 67
M  V30 25 2 16 17
M  V30 26 1 16 68
M  V30 27 1 17 18
M  V30 28 1 18 19
M  V30 29 1 19 69
M  V30 30 1 19 70
M  V30 31 1 19 71
M  V30 32 1 20 21
M  V30 33 2 20 28
M  V30 34 2 21 22
M  V30 35 1 22 23
M  V30 36 1 22 24
M  V30 37 1 23 28
M  V30 38 1 23 27
M  V30 39 2 24 25
M  V30 40 1 24 72
M  V30 41 1 25 26
M  V30 42 1 25 73
M  V30 43 2 26 27
M  V30 44 1 26 74
M  V30 45 1 27 75
M  V30 46 1 28 29
M  V30 47 2 29 30
M  V30 48 1 29 34
M  V30 49 1 30 31
M  V30 50 2 31 32
M  V30 51 1 31 35
M  V30 52 1 32 33
M  V30 53 2 33 34
M  V30 54 1 33 76
M  V30 55 1 34 77
M  V30 56 1 35 36
M  V30 57 1 35 78
M  V30 58 2 36 37
M  V30 59 1 36 43
M  V30 60 1 37 38
M  V30 61 1 37 79
M  V30 62 1 38 39
M  V30 63 2 38 41
M  V30 64 1 39 40
M  V30 65 1 39 80
M  V30 66 1 39 81
M  V30 67 1 40 82
M  V30 68 1 40 83
M  V30 69 1 40 84
M  V30 70 1 41 42
M  V30 71 1 41 46
M  V30 72 2 42 43
M  V30 73 1 42 85
M  V30 74 1 43 44
M  V30 75 1 44 45
M  V30 76 1 45 86
M  V30 77 1 45 87
M  V30 78 1 45 88
M  V30 79 1 46 47
M  V30 80 1 46 51
M  V30 81 1 47 48
M  V30 82 1 47 89
M  V30 83 1 47 90
M  V30 84 1 48 49
M  V30 85 1 48 91
M  V30 86 1 48 92
M  V30 87 1 49 50
M  V30 88 1 49 52
M  V30 89 1 49 93
M  V30 90 1 50 51
M  V30 91 1 50 94
M  V30 92 1 50 95
M  V30 93 1 51 96
M  V30 94 1 51 97
M  V30 95 1 52 53
M  V30 96 1 52 57
M  V30 97 1 52 109
M  V30 98 1 53 54
M  V30 99 1 53 98
M  V30 100 1 53 99
M  V30 101 1 54 55
M  V30 102 1 54 100
M  V30 103 1 54 101
M  V30 104 1 55 56
M  V30 105 1 55 58
M  V30 106 1 56 57
M  V30 107 1 56 102
M  V30 108 1 56 103
M  V30 109 1 57 104
M  V30 110 1 57 105
M  V30 111 2 58 59
M  V30 112 2 58 60
M  V30 113 1 58 61
M  V30 114 1 61 106
M  V30 115 1 61 107
M  V30 116 1 61 108
M  V30 END BOND
M  V30 END CTAB
M  END
> <s_m_entry_id>
508

> <s_m_entry_name>
result.7673

> <s_m_Source_Path>
D:\OneDrive - zju.edu.cn\DOC\A-Finished\LCK_VS\Planet\LCK-8617

> <s_m_Source_File>
glide-dock_SP_top1262_2_pv.maegz

> <i_m_Source_File_Index>
508

> <PLANET_affinity>
9.942

> <i_lp_mmshare_version>
54117

> <i_f3d_flags>
0

> <s_epik_input>
RmMxW2NIXVtjSF1bY0hdYyhGKWMxW05IXUMoPU8pYzJbY0hdYyhbY0hdW2NIXWMyT1tDSDNdKS1jKG4zKWMobihjMzQpW2NIXVtjSF1bY0hdW2NIXTQpLWM1bmMobltjSF1bY0hdNSlbTkhdYzZbY0hdYyhbQ0gyXVtDSDNdKWMoW2NIXWM2T1tDSDNdKU43W0NIMl1bQ0gyXVtDSF0oW0NIMl1bQ0gyXTcpTjhbQ0gyXVtDSDJdTihbQ0gyXVtDSDJdOClTKD1PKSg9TylbQ0gzXQ==

> <s_epik_cmdline>
J2VwaWtfcHl0aG9uJywgJy1waCcsICc3LjAnLCAnLXRuJywgJzgnLCAnLW1hJywgJzUwMCcsICctaW1hZScsICc8aW5maWxlLm1hZT4nLCAnLW9tYWUnLCAnPG91dGZpbGUubWFlPic=

> <r_epik_Ionization_Penalty>
  0.0335

> <r_epik_Ionization_Penalty_Charging>
  0.0329

> <r_epik_Ionization_Penalty_Neutral>
  0.0006

> <r_epik_State_Penalty>
  0.0241

> <r_epik_Charging_Adjusted_Penalty>
0.0569625

> <i_epik_Tot_Q>
1

> <i_epik_Tot_abs_Q>
1

> <s_lp_Force_Field>
S-OPLS

> <r_lp_Energy>
111.489

> <b_lp_Chiralities_Consistent>
1

> <s_lp_Variant>
O=C(C1=CC(C2=C(N3C=CC=CC3=N2)C4=NC(NC5=CC(CC)=C(C=C5OC)N6CCC(CC6)N7CCN(CC7)S(...-1

> <s_i_glide_gridfile>
glide-grid_1

> <i_i_glide_lignum>
271

> <i_i_glide_rotatable_bonds>
13

> <r_i_docking_score>
-8.00576069838548

> <r_i_glide_ligand_efficiency>
-0.131241978662057

> <r_i_glide_ligand_efficiency_sa>
-0.516633678600004

> <r_i_glide_ligand_efficiency_ln>
-1.56641719423072

> <r_i_glide_gscore>
-8.02986069838548

> <r_i_glide_lipo>
-2.59516850674151

> <r_i_glide_hbond>
-0.479189917571263

> <r_i_glide_metal>
0

> <r_i_glide_rewards>
-0.981228395682917

> <r_i_glide_evdw>
-47.6993637084961

> <r_i_glide_ecoul>
-10.3463935852051

> <r_i_glide_erotb>
0.0584895260922822

> <r_i_glide_esite>
-0.0958361812765017

> <r_i_glide_emodel>
-84.062400624089

> <r_i_glide_energy>
-58.0457572937012

> <r_i_glide_einternal>
13.3117485046387

> <i_i_glide_confnum>
17

> <i_i_glide_posenum>
101

> <r_i_glide_eff_state_penalty>
0.0241

> <r_lp_tautomer_probability>
1

> <s_m_subgroup_title>
glide-dock_SP_top1262_2_pv

> <s_m_subgroupid>
glide-dock_SP_top1262_2_pv

> <b_m_subgroup_collapsed>
0

$$$$
O=C1C2=C(C(N1C3C(NC(CC3)=O)=O)=O)C(NCC(N4CCN(CC4)C5=CN=C(NC6=NC(N(C7CCCC7)C(C...
                    3D
 Schrodinger Suite 2021-3.
  0  0  0     0  0            999 V3000
M  V30 BEGIN CTAB
M  V30 COUNTS 97 104 0 0 0
M  V30 BEGIN ATOM
M  V30 1 C  36.0375 41.2939 92.1765 0
M  V30 2 C  36.3755 42.1536 90.9398 0
M  V30 3 C  35.1227 42.8471 90.3679 0
M  V30 4 O  35.1718 43.8789 89.7037 0
M  V30 5 N  33.9508 42.2205 90.5954 0
M  V30 6 C  33.6409 41.0616 91.2168 0
M  V30 7 O  32.5174 40.5820 91.1119 0
M  V30 8 C  34.7951 40.3808 92.0044 0 CFG=1
M  V30 9 N  35.0202 38.9696 91.5932 0
M  V30 10 C  34.8704 37.9224 92.4496 0
M  V30 11 O  34.4870 37.9575 93.6222 0
M  V30 12 C  35.4569 38.5944 90.3567 0
M  V30 13 O  35.6741 39.3294 89.3912 0
M  V30 14 C  35.6272 37.1187 90.4144 0
M  V30 15 C  35.2822 36.7225 91.6810 0
M  V30 16 C  36.0513 36.1915 89.4479 0
M  V30 17 C  36.0963 34.8394 89.8279 0
M  V30 18 C  35.7465 34.4379 91.1224 0
M  V30 19 C  35.3394 35.3841 92.0622 0
M  V30 20 N  36.4024 36.6193 88.1547 0
M  V30 21 C  37.1100 35.8199 87.1796 0
M  V30 22 C  36.8703 36.2537 85.7115 0
M  V30 23 O  37.8660 36.5540 85.0431 0
M  V30 24 N  35.6214 36.2313 85.1665 0
M  V30 25 C  35.3976 36.5648 83.7514 0
M  V30 26 C  34.4559 37.7924 83.6835 0
M  V30 27 N  33.2445 37.7180 84.5218 0
M  V30 28 C  33.5697 37.2812 85.8928 0
M  V30 29 C  34.3917 35.9717 85.9276 0
M  V30 30 C  31.9971 37.3731 84.0178 0
M  V30 31 C  31.8199 36.5415 82.9020 0
M  V30 32 N  30.5759 36.1467 82.5466 0 CHG=1
M  V30 33 C  29.4507 36.5150 83.1992 0
M  V30 34 C  29.5891 37.3892 84.2902 0
M  V30 35 C  30.8544 37.8078 84.6959 0
M  V30 36 N  28.2125 35.9567 82.7372 0
M  V30 37 C  26.8760 36.1369 83.2100 0
M  V30 38 N  26.6168 36.9888 84.2287 0
M  V30 39 N  25.9632 35.3905 82.5450 0
M  V30 40 C  24.6764 35.5274 82.9503 0
M  V30 41 C  24.2957 36.3810 84.0027 0
M  V30 42 C  25.3189 37.1058 84.6378 0
M  V30 43 C  22.9000 36.5997 84.4411 0
M  V30 44 C  21.8490 35.8170 83.6463 0
M  V30 45 C  22.6470 37.4773 85.4586 0
M  V30 46 C  21.2575 37.6565 85.8931 0
M  V30 47 O  20.6990 36.8655 86.6523 0
M  V30 48 C  20.4973 38.8724 85.3748 0
M  V30 49 C  23.7020 38.2421 86.1379 0
M  V30 50 O  23.4346 39.0462 87.0373 0
M  V30 51 N  24.9929 38.0048 85.7048 0
M  V30 52 C  26.1240 38.7474 86.3536 0
M  V30 53 C  26.0838 40.2898 86.2005 0
M  V30 54 C  26.3735 40.8680 87.5948 0
M  V30 55 C  27.0192 39.7306 88.3878 0
M  V30 56 C  26.3236 38.4768 87.8591 0
M  V30 57 H  35.8871 41.9498 93.0365 0
M  V30 58 H  36.9100 40.6883 92.4359 0
M  V30 59 H  36.8035 41.5438 90.1445 0
M  V30 60 H  37.1208 42.9106 91.1875 0
M  V30 61 H  33.1632 42.6574 90.1398 0
M  V30 62 H  34.3562 40.3240 93.0009 0
M  V30 63 H  36.3948 34.0703 89.1311 0
M  V30 64 H  35.7916 33.3927 91.3887 0
M  V30 65 H  35.0695 35.0675 93.0573 0
M  V30 66 H  36.4558 37.6244 88.0519 0
M  V30 67 H  36.8833 34.7565 87.2042 0
M  V30 68 H  38.1857 35.8824 87.3624 0
M  V30 69 H  34.9220 35.7098 83.2673 0
M  V30 70 H  36.3220 36.7540 83.1997 0
M  V30 71 H  34.1901 38.0067 82.6476 0
M  V30 72 H  35.0069 38.6568 84.0571 0
M  V30 73 H  34.1378 38.0831 86.3707 0
M  V30 74 H  32.6706 37.1422 86.4929 0
M  V30 75 H  34.5642 35.6249 86.9433 0
M  V30 76 H  33.8301 35.1606 85.4607 0
M  V30 77 H  32.6281 36.1361 82.3092 0
M  V30 78 H  28.7586 37.7435 84.8689 0
M  V30 79 H  30.9489 38.4562 85.5558 0
M  V30 80 H  28.2747 35.3386 81.9409 0
M  V30 81 H  23.9553 34.9388 82.4000 0
M  V30 82 H  22.0794 34.7559 83.7064 0
M  V30 83 H  20.8232 35.9585 83.9802 0
M  V30 84 H  21.8723 36.1093 82.5967 0
M  V30 85 H  20.9890 39.7896 85.7032 0
M  V30 86 H  20.4711 38.8613 84.2847 0
M  V30 87 H  19.4718 38.8738 85.7490 0
M  V30 88 H  27.0993 38.4772 85.9577 0
M  V30 89 H  25.1281 40.6677 85.8306 0
M  V30 90 H  26.8449 40.6147 85.4882 0
M  V30 91 H  25.4394 41.1672 88.0733 0
M  V30 92 H  27.0114 41.7535 87.5499 0
M  V30 93 H  26.8828 39.8532 89.4628 0
M  V30 94 H  28.0919 39.6857 88.1913 0
M  V30 95 H  26.8821 37.5589 88.0403 0
M  V30 96 H  25.3789 38.3567 88.3879 0
M  V30 97 H  30.4847 35.5157 81.7585 0
M  V30 END ATOM
M  V30 BEGIN BOND
M  V30 1 1 1 2
M  V30 2 1 1 8
M  V30 3 1 1 57
M  V30 4 1 1 58
M  V30 5 1 2 3
M  V30 6 1 2 59
M  V30 7 1 2 60
M  V30 8 2 3 4
M  V30 9 1 3 5
M  V30 10 1 5 6
M  V30 11 1 5 61
M  V30 12 2 6 7
M  V30 13 1 6 8
M  V30 14 1 8 9
M  V30 15 1 8 62
M  V30 16 1 9 10
M  V30 17 1 9 12
M  V30 18 2 10 11
M  V30 19 1 10 15
M  V30 20 2 12 13
M  V30 21 1 12 14
M  V30 22 2 14 15
M  V30 23 1 14 16
M  V30 24 1 15 19
M  V30 25 2 16 17
M  V30 26 1 16 20
M  V30 27 1 17 18
M  V30 28 1 17 63
M  V30 29 2 18 19
M  V30 30 1 18 64
M  V30 31 1 19 65
M  V30 32 1 20 21
M  V30 33 1 20 66
M  V30 34 1 21 22
M  V30 35 1 21 67
M  V30 36 1 21 68
M  V30 37 2 22 23
M  V30 38 1 22 24
M  V30 39 1 24 25
M  V30 40 1 24 29
M  V30 41 1 25 26
M  V30 42 1 25 69
M  V30 43 1 25 70
M  V30 44 1 26 27
M  V30 45 1 26 71
M  V30 46 1 26 72
M  V30 47 1 27 28
M  V30 48 1 27 30
M  V30 49 1 28 29
M  V30 50 1 28 73
M  V30 51 1 28 74
M  V30 52 1 29 75
M  V30 53 1 29 76
M  V30 54 2 30 31
M  V30 55 1 30 35
M  V30 56 1 31 32
M  V30 57 1 31 77
M  V30 58 2 32 33
M  V30 59 1 32 97
M  V30 60 1 33 34
M  V30 61 1 33 36
M  V30 62 2 34 35
M  V30 63 1 34 78
M  V30 64 1 35 79
M  V30 65 1 36 37
M  V30 66 1 36 80
M  V30 67 1 37 38
M  V30 68 2 37 39
M  V30 69 2 38 42
M  V30 70 1 39 40
M  V30 71 2 40 41
M  V30 72 1 40 81
M  V30 73 1 41 42
M  V30 74 1 41 43
M  V30 75 1 42 51
M  V30 76 1 43 44
M  V30 77 2 43 45
M  V30 78 1 44 82
M  V30 79 1 44 83
M  V30 80 1 44 84
M  V30 81 1 45 46
M  V30 82 1 45 49
M  V30 83 2 46 47
M  V30 84 1 46 48
M  V30 85 1 48 85
M  V30 86 1 48 86
M  V30 87 1 48 87
M  V30 88 2 49 50
M  V30 89 1 49 51
M  V30 90 1 51 52
M  V30 91 1 52 53
M  V30 92 1 52 56
M  V30 93 1 52 88
M  V30 94 1 53 54
M  V30 95 1 53 89
M  V30 96 1 53 90
M  V30 97 1 54 55
M  V30 98 1 54 91
M  V30 99 1 54 92
M  V30 100 1 55 56
M  V30 101 1 55 93
M  V30 102 1 55 94
M  V30 103 1 56 95
M  V30 104 1 56 96
M  V30 END BOND
M  V30 END CTAB
M  END
> <s_m_entry_id>
510

> <s_m_entry_name>
result.3768

> <s_m_Source_Path>
D:\OneDrive - zju.edu.cn\DOC\A-Finished\LCK_VS\Planet\LCK-8617

> <s_m_Source_File>
glide-dock_SP_top1262_2_pv.maegz

> <i_m_Source_File_Index>
510

> <PLANET_affinity>
12.67

> <i_lp_mmshare_version>
54117

> <i_f3d_flags>
0

> <s_epik_input>
Tz1DMVtDSDJdW0NIMl1bQ0BASF0oQyg9TylbTkhdMSlOKEMyPU8pQyg9TyljKGMyMylbY0hdW2NIXVtjSF1jM1tOSF1bQ0gyXUMoPU8pTjRbQ0gyXVtDSDJdTihbQ0gyXVtDSDJdNCljNVtjSF1uYyhbY0hdW2NIXTUpW05IXWMobltjSF02KW5jKGM2NyluKGMoPU8pYyhjN1tDSDNdKUMoPU8pW0NIM10pW0NIXThbQ0gyXVtDSDJdW0NIMl1bQ0gyXTg=

> <s_epik_cmdline>
J2VwaWtfcHl0aG9uJywgJy1waCcsICc3LjAnLCAnLXRuJywgJzgnLCAnLW1hJywgJzUwMCcsICctaW1hZScsICc8aW5maWxlLm1hZT4nLCAnLW9tYWUnLCAnPG91dGZpbGUubWFlPic=

> <r_epik_Ionization_Penalty>
  0.0734

> <r_epik_Ionization_Penalty_Charging>
  0.0732

> <r_epik_Ionization_Penalty_Neutral>
  0.0002

> <r_epik_State_Penalty>
  0.0644

> <r_epik_Charging_Adjusted_Penalty>
0.137606

> <i_epik_Tot_Q>
1

> <i_epik_Tot_abs_Q>
1

> <s_epik_Chemistry_Notes>
This compound has an imine and may undergo hydrolysis.

> <s_lp_Force_Field>
S-OPLS

> <r_lp_Energy>
111.056

> <b_lp_Chiralities_Consistent>
1

> <s_lp_Variant>
O=C1C2=C(C(N1C3C(NC(CC3)=O)=O)=O)C(NCC(N4CCN(CC4)C5=CN=C(NC6=NC(N(C7CCCC7)C(C...-1

> <s_i_glide_gridfile>
glide-grid_1

> <i_i_glide_lignum>
93

> <i_i_glide_rotatable_bonds>
10

> <r_i_docking_score>
-8.0031231165404

> <r_i_glide_ligand_efficiency>
-0.142912912795364

> <r_i_glide_ligand_efficiency_sa>
-0.546765133880526

> <r_i_glide_ligand_efficiency_ln>
-1.592549857017

> <r_i_glide_gscore>
-8.0675231165404

> <r_i_glide_lipo>
-2.48715442930405

> <r_i_glide_hbond>
-0.206294339136319

> <r_i_glide_metal>
0

> <r_i_glide_rewards>
-1.79732569602321

> <r_i_glide_evdw>
-48.866813659668

> <r_i_glide_ecoul>
-7.600754737854

> <r_i_glide_erotb>
0.140458869414181

> <r_i_glide_esite>
-0.1337536278295

> <r_i_glide_emodel>
-86.0342498896306

> <r_i_glide_energy>
-56.467568397522

> <r_i_glide_einternal>
12.5568656921387

> <i_i_glide_confnum>
1480

> <i_i_glide_posenum>
368

> <r_i_glide_eff_state_penalty>
0.0644

> <r_lp_tautomer_probability>
0.999894

> <s_m_subgroup_title>
glide-dock_SP_top1262_2_pv

> <s_m_subgroupid>
glide-dock_SP_top1262_2_pv

> <b_m_subgroup_collapsed>
0

$$$$
O=C(N)C1=CC=C(N2N=C(C(C)C)C3=C(N4C=C(C5=CN(C)N=C5)N=C4)C=CN=C32)C(CC)=C1
                    3D
 Schrodinger Suite 2021-3.
  0  0  0     0  0            999 V3000
M  V30 BEGIN CTAB
M  V30 COUNTS 60 64 0 0 0
M  V30 BEGIN ATOM
M  V30 1 O  17.0237 38.7617 84.9713 0
M  V30 2 C  17.6161 38.1195 85.8373 0
M  V30 3 N  16.9489 37.5567 86.8448 0
M  V30 4 C  19.1114 37.9119 85.7776 0
M  V30 5 C  19.8566 38.6055 84.8185 0
M  V30 6 C  21.2267 38.4132 84.7076 0
M  V30 7 C  21.8815 37.5082 85.5423 0
M  V30 8 C  21.1674 36.8130 86.5335 0
M  V30 9 C  19.7864 37.0325 86.6428 0
M  V30 10 C  21.8684 35.8542 87.4972 0
M  V30 11 C  21.1007 34.5601 87.8064 0
M  V30 12 N  23.2697 37.3811 85.3726 0
M  V30 13 N  24.1059 38.0795 86.1573 0
M  V30 14 C  25.3292 37.9426 85.6957 0
M  V30 15 C  26.4791 38.6157 86.4418 0
M  V30 16 C  26.4837 38.2392 87.9317 0
M  V30 17 C  26.4366 40.1494 86.2837 0
M  V30 18 C  23.9601 36.7486 84.3592 0
M  V30 19 C  25.3132 37.1580 84.4812 0
M  V30 20 N  23.4513 35.9567 83.4059 0
M  V30 21 C  24.3386 35.5519 82.4632 0
M  V30 22 C  25.6886 35.9019 82.4491 0
M  V30 23 C  26.2039 36.7191 83.4672 0
M  V30 24 N  27.5624 37.0884 83.4358 0
M  V30 25 C  28.6443 36.3031 83.1264 0
M  V30 26 C  29.7720 37.1018 83.2519 0
M  V30 27 N  29.4346 38.3314 83.6040 0
M  V30 28 C  28.1249 38.3243 83.6449 0
M  V30 29 C  31.1497 36.6967 83.0606 0
M  V30 30 C  32.3107 37.3568 83.4342 0
M  V30 31 N  33.3483 36.5506 83.0449 0
M  V30 32 C  34.7704 36.7618 83.2437 0
M  V30 33 N  32.9320 35.4323 82.4416 0
M  V30 34 C  31.6218 35.5281 82.4443 0
M  V30 35 H  15.9490 37.6865 86.8825 0
M  V30 36 H  17.4319 37.1299 87.6168 0
M  V30 37 H  19.3797 39.3069 84.1497 0
M  V30 38 H  21.7811 38.9810 83.9757 0
M  V30 39 H  19.2377 36.4995 87.4032 0
M  V30 40 H  22.8356 35.5569 87.0931 0
M  V30 41 H  22.0830 36.4021 88.4145 0
M  V30 42 H  21.7098 33.9244 88.4435 0
M  V30 43 H  20.1666 34.7363 88.3394 0
M  V30 44 H  20.8770 33.9988 86.8978 0
M  V30 45 H  27.4327 38.2506 86.0686 0
M  V30 46 H  26.4830 37.1564 88.0434 0
M  V30 47 H  27.3642 38.6304 88.4435 0
M  V30 48 H  25.6030 38.6266 88.4450 0
M  V30 49 H  26.3908 40.4564 85.2396 0
M  V30 50 H  25.5621 40.5750 86.7777 0
M  V30 51 H  27.3182 40.6154 86.7255 0
M  V30 52 H  23.9211 34.9319 81.6826 0
M  V30 53 H  26.3284 35.5573 81.6480 0
M  V30 54 H  28.5269 35.2599 82.8711 0
M  V30 55 H  27.4951 39.1736 83.8484 0
M  V30 56 H  32.4835 38.2926 83.9436 0
M  V30 57 H  34.9456 37.7478 83.6749 0
M  V30 58 H  35.1558 35.9997 83.9232 0
M  V30 59 H  35.2872 36.6935 82.2850 0
M  V30 60 H  31.0066 34.7571 82.0034 0
M  V30 END ATOM
M  V30 BEGIN BOND
M  V30 1 2 1 2
M  V30 2 1 2 3
M  V30 3 1 2 4
M  V30 4 1 3 35
M  V30 5 1 3 36
M  V30 6 2 4 5
M  V30 7 1 4 9
M  V30 8 1 5 6
M  V30 9 1 5 37
M  V30 10 2 6 7
M  V30 11 1 6 38
M  V30 12 1 7 8
M  V30 13 1 7 12
M  V30 14 2 8 9
M  V30 15 1 8 10
M  V30 16 1 9 39
M  V30 17 1 10 11
M  V30 18 1 10 40
M  V30 19 1 10 41
M  V30 20 1 11 42
M  V30 21 1 11 43
M  V30 22 1 11 44
M  V30 23 1 12 13
M  V30 24 1 12 18
M  V30 25 2 13 14
M  V30 26 1 14 15
M  V30 27 1 14 19
M  V30 28 1 15 16
M  V30 29 1 15 17
M  V30 30 1 15 45
M  V30 31 1 16 46
M  V30 32 1 16 47
M  V30 33 1 16 48
M  V30 34 1 17 49
M  V30 35 1 17 50
M  V30 36 1 17 51
M  V30 37 2 18 19
M  V30 38 1 18 20
M  V30 39 1 19 23
M  V30 40 2 20 21
M  V30 41 1 21 22
M  V30 42 1 21 52
M  V30 43 2 22 23
M  V30 44 1 22 53
M  V30 45 1 23 24
M  V30 46 1 24 25
M  V30 47 1 24 28
M  V30 48 2 25 26
M  V30 49 1 25 54
M  V30 50 1 26 27
M  V30 51 1 26 29
M  V30 52 2 27 28
M  V30 53 1 28 55
M  V30 54 2 29 30
M  V30 55 1 29 34
M  V30 56 1 30 31
M  V30 57 1 30 56
M  V30 58 1 31 32
M  V30 59 1 31 33
M  V30 60 1 32 57
M  V30 61 1 32 58
M  V30 62 1 32 59
M  V30 63 2 33 34
M  V30 64 1 34 60
M  V30 END BOND
M  V30 END CTAB
M  END
> <s_m_entry_id>
513

> <s_m_entry_name>
result.3951

> <s_m_Source_Path>
D:\OneDrive - zju.edu.cn\DOC\A-Finished\LCK_VS\Planet\LCK-8617

> <s_m_Source_File>
glide-dock_SP_top1262_2_pv.maegz

> <i_m_Source_File_Index>
513

> <PLANET_affinity>
8.152

> <i_lp_mmshare_version>
54117

> <i_f3d_flags>
0

> <s_epik_input>
Tz1DKFtOSDJdKWMxW2NIXVtjSF1jKGMoW2NIXTEpW0NIMl1bQ0gzXSktbjJuYyhbQ0hdKFtDSDNdKVtDSDNdKWMoYzIzKWMoW2NIXVtjSF1uMyktbjRbY0hdYyhuW2NIXTQpLWM1W2NIXW4oW0NIM10pbltjSF01

> <s_epik_cmdline>
J2VwaWtfcHl0aG9uJywgJy1waCcsICc3LjAnLCAnLXRuJywgJzgnLCAnLW1hJywgJzUwMCcsICctaW1hZScsICc8aW5maWxlLm1hZT4nLCAnLW9tYWUnLCAnPG91dGZpbGUubWFlPic=

> <r_epik_Ionization_Penalty>
  0.0084

> <r_epik_Ionization_Penalty_Charging>
  0.0084

> <r_epik_Ionization_Penalty_Neutral>
  0.0000

> <r_epik_State_Penalty>
  0.0063

> <r_epik_Charging_Adjusted_Penalty>
0.0147518

> <i_epik_Tot_Q>
0

> <i_epik_Tot_abs_Q>
0

> <s_lp_Force_Field>
S-OPLS

> <r_lp_Energy>
35.6755

> <b_lp_Chiralities_Consistent>
1

> <s_lp_Variant>
O=C(N)C1=CC=C(N2N=C(C(C)C)C3=C(N4C=C(C5=CN(C)N=C5)N=C4)C=CN=C32)C(CC)=C1-1

> <s_i_glide_gridfile>
glide-grid_1

> <i_i_glide_lignum>
1156

> <i_i_glide_rotatable_bonds>
6

> <r_i_docking_score>
-8.00038292690679

> <r_i_glide_ligand_efficiency>
-0.235305380203141

> <r_i_glide_ligand_efficiency_sa>
-0.762298085714135

> <r_i_glide_ligand_efficiency_ln>
-1.76750899169377

> <r_i_glide_gscore>
-8.00668292690679

> <r_i_glide_lipo>
-3.77525204598432

> <r_i_glide_hbond>
0

> <r_i_glide_metal>
0

> <r_i_glide_rewards>
-1.59480216844049

> <r_i_glide_evdw>
-52.5712013244629

> <r_i_glide_ecoul>
-1.99786949157715

> <r_i_glide_erotb>
0.29161177747773

> <r_i_glide_esite>
0

> <r_i_glide_emodel>
-74.8508002695147

> <r_i_glide_energy>
-54.56907081604

> <r_i_glide_einternal>
8.58743762969971

> <i_i_glide_confnum>
4

> <i_i_glide_posenum>
148

> <r_i_glide_eff_state_penalty>
0.0063

> <r_lp_tautomer_probability>
1

> <s_m_subgroup_title>
glide-dock_SP_top1262_2_pv

> <s_m_subgroupid>
glide-dock_SP_top1262_2_pv

> <b_m_subgroup_collapsed>
0

$$$$
O=C(/C=C/CN1CCCCC1)NC2=CC3=C(C=C2OC)N=CN=C3NC4=CC=C(C(Cl)=C4)F
                    3D
 Schrodinger Suite 2021-3.
  0  0  0     0  0            999 V3000
M  V30 BEGIN CTAB
M  V30 COUNTS 59 62 0 0 0
M  V30 BEGIN ATOM
M  V30 1 C  32.8324 42.0189 88.2275 0
M  V30 2 C  32.5915 41.6478 89.7032 0
M  V30 3 C  31.3784 42.3871 90.2972 0
M  V30 4 C  30.1129 42.1861 89.4421 0
M  V30 5 C  30.3452 42.5396 87.9611 0
M  V30 6 N  31.5441 41.7147 87.4304 0 CHG=1
M  V30 7 C  31.7503 41.9762 85.9149 0
M  V30 8 C  30.7885 41.2415 84.9956 0
M  V30 9 C  29.9262 40.2700 85.3574 0
M  V30 10 C  29.0441 39.6151 84.4234 0
M  V30 11 O  28.9083 39.9598 83.2436 0
M  V30 12 N  28.3887 38.5865 84.9959 0
M  V30 13 C  27.5086 37.7267 84.3370 0
M  V30 14 C  26.1658 37.7850 84.7137 0
M  V30 15 C  27.9719 36.8005 83.3899 0
M  V30 16 O  29.3310 36.7533 83.1258 0
M  V30 17 C  29.8409 35.7756 82.2212 0
M  V30 18 C  27.0450 35.9448 82.7825 0
M  V30 19 C  25.6802 35.9915 83.1256 0
M  V30 20 C  25.2255 36.9104 84.1188 0
M  V30 21 N  24.8353 35.1366 82.4974 0
M  V30 22 C  23.5453 35.1586 82.8971 0
M  V30 23 N  23.0054 35.9546 83.8439 0
M  V30 24 C  23.8375 36.8415 84.4438 0
M  V30 25 N  23.2551 37.7112 85.3853 0
M  V30 26 C  22.0086 37.5814 86.0116 0
M  V30 27 C  21.1127 38.6529 86.0328 0
M  V30 28 C  19.8616 38.5101 86.6397 0
M  V30 29 C  19.5108 37.2996 87.2452 0
M  V30 30 F  18.2992 37.1710 87.8344 0
M  V30 31 C  20.4213 36.2373 87.2496 0
M  V30 32 Cl 20.0480 34.7509 88.0423 0
M  V30 33 C  21.6599 36.3799 86.6314 0
M  V30 34 H  33.0527 43.0811 88.0925 0
M  V30 35 H  33.6380 41.4224 87.7916 0
M  V30 36 H  33.4850 41.8790 90.2854 0
M  V30 37 H  32.4445 40.5679 89.7858 0
M  V30 38 H  31.1984 42.0413 91.3161 0
M  V30 39 H  31.6035 43.4538 90.3725 0
M  V30 40 H  29.7735 41.1526 89.5151 0
M  V30 41 H  29.3011 42.7989 89.8411 0
M  V30 42 H  30.5931 43.5964 87.8301 0
M  V30 43 H  29.4749 42.3014 87.3449 0
M  V30 44 H  31.6930 43.0568 85.7652 0
M  V30 45 H  32.7648 41.6496 85.6731 0
M  V30 46 H  30.8282 41.5566 83.9596 0
M  V30 47 H  29.8818 39.9338 86.3833 0
M  V30 48 H  28.5059 38.4400 85.9856 0
M  V30 49 H  25.8419 38.4913 85.4626 0
M  V30 50 H  30.9266 35.8657 82.1539 0
M  V30 51 H  29.6184 34.7591 82.5547 0
M  V30 52 H  29.4397 35.9186 81.2177 0
M  V30 53 H  27.3535 35.2218 82.0458 0
M  V30 54 H  22.8841 34.4442 82.4443 0
M  V30 55 H  23.8481 38.4465 85.7374 0
M  V30 56 H  21.3683 39.5916 85.5642 0
M  V30 57 H  19.1599 39.3336 86.6468 0
M  V30 58 H  22.3550 35.5567 86.6366 0
M  V30 59 H  31.3360 40.7322 87.5632 0
M  V30 END ATOM
M  V30 BEGIN BOND
M  V30 1 1 1 2
M  V30 2 1 1 6
M  V30 3 1 1 34
M  V30 4 1 1 35
M  V30 5 1 2 3
M  V30 6 1 2 36
M  V30 7 1 2 37
M  V30 8 1 3 4
M  V30 9 1 3 38
M  V30 10 1 3 39
M  V30 11 1 4 5
M  V30 12 1 4 40
M  V30 13 1 4 41
M  V30 14 1 5 6
M  V30 15 1 5 42
M  V30 16 1 5 43
M  V30 17 1 6 7
M  V30 18 1 6 59
M  V30 19 1 7 8
M  V30 20 1 7 44
M  V30 21 1 7 45
M  V30 22 2 8 9
M  V30 23 1 8 46
M  V30 24 1 9 10
M  V30 25 1 9 47
M  V30 26 2 10 11
M  V30 27 1 10 12
M  V30 28 1 12 13
M  V30 29 1 12 48
M  V30 30 2 13 14
M  V30 31 1 13 15
M  V30 32 1 14 20
M  V30 33 1 14 49
M  V30 34 1 15 16
M  V30 35 2 15 18
M  V30 36 1 16 17
M  V30 37 1 17 50
M  V30 38 1 17 51
M  V30 39 1 17 52
M  V30 40 1 18 19
M  V30 41 1 18 53
M  V30 42 2 19 20
M  V30 43 1 19 21
M  V30 44 1 20 24
M  V30 45 2 21 22
M  V30 46 1 22 23
M  V30 47 1 22 54
M  V30 48 2 23 24
M  V30 49 1 24 25
M  V30 50 1 25 26
M  V30 51 1 25 55
M  V30 52 2 26 27
M  V30 53 1 26 33
M  V30 54 1 27 28
M  V30 55 1 27 56
M  V30 56 2 28 29
M  V30 57 1 28 57
M  V30 58 1 29 30
M  V30 59 1 29 31
M  V30 60 1 31 32
M  V30 61 2 31 33
M  V30 62 1 33 58
M  V30 END BOND
M  V30 END CTAB
M  END
> <s_m_entry_id>
516

> <s_m_entry_name>
result.775

> <s_m_Source_Path>
D:\OneDrive - zju.edu.cn\DOC\A-Finished\LCK_VS\Planet\LCK-8617

> <s_m_Source_File>
glide-dock_SP_top1262_2_pv.maegz

> <i_m_Source_File_Index>
516

> <PLANET_affinity>
8.287

> <i_lp_mmshare_version>
54117

> <i_f3d_flags>
0

> <s_epik_input>
W0NIMl0xW0NIMl1bQ0gyXVtDSDJdW0NIMl1OMVtDSDJdL1tDSF09W0NIXS9DKD1PKVtOSF1jKGMoW2NIXTIpT1tDSDNdKVtjSF1jKGMyMyljKG5bY0hdbjMpW05IXWM0W2NIXVtjSF1jKEYpYyhDbClbY0hdNA==

> <s_epik_cmdline>
J2VwaWtfcHl0aG9uJywgJy1waCcsICc3LjAnLCAnLXRuJywgJzgnLCAnLW1hJywgJzUwMCcsICctaW1hZScsICc8aW5maWxlLm1hZT4nLCAnLW9tYWUnLCAnPG91dGZpbGUubWFlPic=

> <r_epik_Ionization_Penalty>
  0.0867

> <r_epik_Ionization_Penalty_Charging>
  0.0859

> <r_epik_Ionization_Penalty_Neutral>
  0.0007

> <r_epik_State_Penalty>
  0.1083

> <r_epik_Charging_Adjusted_Penalty>
0.194195

> <i_epik_Tot_Q>
1

> <i_epik_Tot_abs_Q>
1

> <s_lp_Force_Field>
S-OPLS

> <r_lp_Energy>
56.4364

> <b_lp_Chiralities_Consistent>
1

> <s_lp_Variant>
O=C(/C=C/CN1CCCCC1)NC2=CC3=C(C=C2OC)N=CN=C3NC4=CC=C(C(Cl)=C4)F-1

> <s_i_glide_gridfile>
glide-grid_1

> <i_i_glide_lignum>
975

> <i_i_glide_rotatable_bonds>
8

> <r_i_docking_score>
-7.99552840450329

> <r_i_glide_ligand_efficiency>
-0.242288739530403

> <r_i_glide_ligand_efficiency_sa>
-0.777149448909414

> <r_i_glide_ligand_efficiency_ln>
-1.77816411853106

> <r_i_glide_gscore>
-8.10382840450329

> <r_i_glide_lipo>
-2.89979152951451

> <r_i_glide_hbond>
-0.384596303150388

> <r_i_glide_metal>
0

> <r_i_glide_rewards>
-1.61585986577417

> <r_i_glide_evdw>
-44.1316795349121

> <r_i_glide_ecoul>
-10.280948638916

> <r_i_glide_erotb>
0.546701298571344

> <r_i_glide_esite>
-0.00155573205255891

> <r_i_glide_emodel>
-80.3246436560561

> <r_i_glide_energy>
-54.4126281738281

> <r_i_glide_einternal>
8.02537822723389

> <i_i_glide_confnum>
76

> <i_i_glide_posenum>
390

> <r_i_glide_eff_state_penalty>
0.1083

> <r_lp_tautomer_probability>
0.999978

> <s_m_subgroup_title>
glide-dock_SP_top1262_2_pv

> <s_m_subgroupid>
glide-dock_SP_top1262_2_pv

> <b_m_subgroup_collapsed>
0

$$$$
O=C(C1=C2N=CC=CN2N=C1N)N[C@H](C3=CC4=C(C(N3C5=CC=CC=C5)=O)C(C#CC6=CN(C)N=C6)=...
                    3D
 Schrodinger Suite 2021-3.
  0  0  0     0  0            999 V3000
M  V30 BEGIN CTAB
M  V30 COUNTS 64 69 0 0 0
M  V30 BEGIN ATOM
M  V30 1 N  16.8823 42.6150 92.0438 0
M  V30 2 C  15.6455 42.4152 92.5794 0
M  V30 3 C  14.5827 43.3084 92.4359 0
M  V30 4 C  14.7975 44.4732 91.7005 0
M  V30 5 N  16.0373 44.6598 91.1492 0
M  V30 6 C  17.0696 43.7274 91.3123 0
M  V30 7 N  16.4173 45.7039 90.3949 0
M  V30 8 C  17.6625 45.4494 90.0468 0
M  V30 9 N  18.2731 46.3575 89.2437 0
M  V30 10 C  18.1674 44.2362 90.5665 0
M  V30 11 C  19.4984 43.7166 90.4598 0
M  V30 12 O  20.0162 43.1568 91.4250 0
M  V30 13 N  20.0642 43.8293 89.2436 0
M  V30 14 C  21.3616 43.3215 88.7505 0 CFG=1
M  V30 15 C  22.4690 43.3359 89.8383 0
M  V30 16 C  21.2837 41.9958 87.9229 0
M  V30 17 C  20.1623 41.2441 87.9389 0
M  V30 18 N  22.4288 41.5583 87.2364 0
M  V30 19 C  23.4263 42.5096 86.8839 0
M  V30 20 C  24.7383 42.3797 87.3668 0
M  V30 21 C  25.7130 43.3010 86.9929 0
M  V30 22 C  25.3809 44.3474 86.1341 0
M  V30 23 C  24.0833 44.4776 85.6439 0
M  V30 24 C  23.1077 43.5562 86.0097 0
M  V30 25 C  22.5426 40.3056 86.6404 0
M  V30 26 O  23.5875 39.9525 86.0774 0
M  V30 27 C  21.2820 39.4189 86.7080 0
M  V30 28 C  20.1221 39.9215 87.3260 0
M  V30 29 C  21.2309 38.1035 86.1564 0
M  V30 30 C  20.0526 37.3545 86.2656 0
M  V30 31 C  18.9227 37.8753 86.8840 0
M  V30 32 C  18.9586 39.1582 87.4107 0
M  V30 33 C  22.3258 37.4332 85.4556 0
M  V30 34 C  23.2306 36.9061 84.8277 0
M  V30 35 C  24.3112 36.3431 84.0407 0
M  V30 36 C  25.6679 36.5944 84.1533 0
M  V30 37 N  26.2751 35.8460 83.1795 0
M  V30 38 C  27.6853 35.7933 82.8415 0
M  V30 39 N  25.3977 35.1551 82.4437 0
M  V30 40 C  24.2268 35.4458 82.9662 0
M  V30 41 H  15.5150 41.4979 93.1378 0
M  V30 42 H  13.6199 43.0931 92.8777 0
M  V30 43 H  14.0490 45.2306 91.5135 0
M  V30 44 H  19.0347 46.0676 88.6438 0
M  V30 45 H  17.7441 47.1437 88.9020 0
M  V30 46 H  19.4752 44.2191 88.5139 0
M  V30 47 H  21.6207 44.1133 88.0481 0
M  V30 48 H  23.4677 43.3949 89.4169 0
M  V30 49 H  22.3762 44.2029 90.4922 0
M  V30 50 H  22.4286 42.4430 90.4623 0
M  V30 51 H  19.2753 41.5999 88.4434 0
M  V30 52 H  24.9995 41.5661 88.0274 0
M  V30 53 H  26.7229 43.2044 87.3649 0
M  V30 54 H  26.1361 45.0611 85.8381 0
M  V30 55 H  23.8325 45.2832 84.9686 0
M  V30 56 H  22.1051 43.6632 85.6170 0
M  V30 57 H  19.9979 36.3513 85.8652 0
M  V30 58 H  18.0201 37.2850 86.9619 0
M  V30 59 H  18.0831 39.5559 87.9024 0
M  V30 60 H  26.2358 37.2310 84.8153 0
M  V30 61 H  28.2812 36.2292 83.6442 0
M  V30 62 H  27.8586 36.3560 81.9243 0
M  V30 63 H  27.9909 34.7578 82.6904 0
M  V30 64 H  23.3144 35.0181 82.5731 0
M  V30 END ATOM
M  V30 BEGIN BOND
M  V30 1 2 1 2
M  V30 2 1 1 6
M  V30 3 1 2 3
M  V30 4 1 2 41
M  V30 5 2 3 4
M  V30 6 1 3 42
M  V30 7 1 4 5
M  V30 8 1 4 43
M  V30 9 1 5 6
M  V30 10 1 5 7
M  V30 11 2 6 10
M  V30 12 2 7 8
M  V30 13 1 8 9
M  V30 14 1 8 10
M  V30 15 1 9 44
M  V30 16 1 9 45
M  V30 17 1 10 11
M  V30 18 2 11 12
M  V30 19 1 11 13
M  V30 20 1 13 14
M  V30 21 1 13 46
M  V30 22 1 14 15
M  V30 23 1 14 16
M  V30 24 1 14 47
M  V30 25 1 15 48
M  V30 26 1 15 49
M  V30 27 1 15 50
M  V30 28 2 16 17
M  V30 29 1 16 18
M  V30 30 1 17 28
M  V30 31 1 17 51
M  V30 32 1 18 19
M  V30 33 1 18 25
M  V30 34 2 19 20
M  V30 35 1 19 24
M  V30 36 1 20 21
M  V30 37 1 20 52
M  V30 38 2 21 22
M  V30 39 1 21 53
M  V30 40 1 22 23
M  V30 41 1 22 54
M  V30 42 2 23 24
M  V30 43 1 23 55
M  V30 44 1 24 56
M  V30 45 2 25 26
M  V30 46 1 25 27
M  V30 47 2 27 28
M  V30 48 1 27 29
M  V30 49 1 28 32
M  V30 50 2 29 30
M  V30 51 1 29 33
M  V30 52 1 30 31
M  V30 53 1 30 57
M  V30 54 2 31 32
M  V30 55 1 31 58
M  V30 56 1 32 59
M  V30 57 3 33 34
M  V30 58 1 34 35
M  V30 59 2 35 36
M  V30 60 1 35 40
M  V30 61 1 36 37
M  V30 62 1 36 60
M  V30 63 1 37 38
M  V30 64 1 37 39
M  V30 65 1 38 61
M  V30 66 1 38 62
M  V30 67 1 38 63
M  V30 68 2 39 40
M  V30 69 1 40 64
M  V30 END BOND
M  V30 END CTAB
M  END
> <s_m_entry_id>
527

> <s_m_entry_name>
result.4317

> <s_m_Source_Path>
D:\OneDrive - zju.edu.cn\DOC\A-Finished\LCK_VS\Planet\LCK-8617

> <s_m_Source_File>
glide-dock_SP_top1262_2_pv.maegz

> <i_m_Source_File_Index>
527

> <PLANET_affinity>
9.222

> <i_lp_mmshare_version>
54117

> <i_f3d_flags>
0

> <s_epik_input>
W2NIXTFbY0hdW2NIXW5jKG4xMiljKGMobjIpW05IMl0pQyg9TylbTkhdW0NAQEhdKFtDSDNdKWMobihjMz1PKS1jNFtjSF1bY0hdW2NIXVtjSF1bY0hdNClbY0hdYyhjMzUpW2NIXVtjSF1bY0hdYzVDI0NjNltjSF1uKFtDSDNdKW5bY0hdNg==

> <s_epik_cmdline>
J2VwaWtfcHl0aG9uJywgJy1waCcsICc3LjAnLCAnLXRuJywgJzgnLCAnLW1hJywgJzUwMCcsICctaW1hZScsICc8aW5maWxlLm1hZT4nLCAnLW9tYWUnLCAnPG91dGZpbGUubWFlPic=

> <r_epik_Ionization_Penalty>
  0.0002

> <r_epik_Ionization_Penalty_Charging>
  0.0000

> <r_epik_Ionization_Penalty_Neutral>
  0.0002

> <r_epik_State_Penalty>
  0.0000

> <r_epik_Charging_Adjusted_Penalty>
4.65017e-08

> <i_epik_Tot_Q>
0

> <i_epik_Tot_abs_Q>
0

> <s_lp_Force_Field>
S-OPLS

> <r_lp_Energy>
54.7963

> <b_lp_Chiralities_Consistent>
1

> <s_lp_Variant>
O=C(C1=C2N=CC=CN2N=C1N)N[C@H](C3=CC4=C(C(N3C5=CC=CC=C5)=O)C(C#CC6=CN(C)N=C6)=...-1

> <s_i_glide_gridfile>
glide-grid_1

> <i_i_glide_lignum>
440

> <i_i_glide_rotatable_bonds>
7

> <r_i_docking_score>
-7.98010764016576

> <r_i_glide_ligand_efficiency>
-0.199502691004144

> <r_i_glide_ligand_efficiency_sa>
-0.682289604989758

> <r_i_glide_ligand_efficiency_ln>
-1.70192211556306

> <r_i_glide_gscore>
-7.98010764016576

> <r_i_glide_lipo>
-2.13431055501259

> <r_i_glide_hbond>
-0.533452035863024

> <r_i_glide_metal>
0

> <r_i_glide_rewards>
-1.28459336702362

> <r_i_glide_evdw>
-47.2434501647949

> <r_i_glide_ecoul>
-12.4394121170044

> <r_i_glide_erotb>
0.516198930732059

> <r_i_glide_esite>
-0.315866287208177

> <r_i_glide_emodel>
-83.1662708131114

> <r_i_glide_energy>
-59.6828622817993

> <r_i_glide_einternal>
12.0502347946167

> <i_i_glide_confnum>
69

> <i_i_glide_posenum>
287

> <r_i_glide_eff_state_penalty>
0

> <r_lp_tautomer_probability>
1

> <s_m_subgroup_title>
glide-dock_SP_top1262_2_pv

> <s_m_subgroupid>
glide-dock_SP_top1262_2_pv

> <b_m_subgroup_collapsed>
0

$$$$
CC(N(C1=CC(C2=CC=NC3=C(C(C4=CC=CS4)=O)C=NN23)=CC=C1F)C)=O
                    3D
 Schrodinger Suite 2021-3.
  0  0  0     0  0            999 V3000
M  V30 BEGIN CTAB
M  V30 COUNTS 43 46 0 0 0
M  V30 BEGIN ATOM
M  V30 1 C  29.9671 41.5177 84.8350 0
M  V30 2 C  29.3121 40.3348 84.1173 0
M  V30 3 O  28.4825 40.5909 83.2421 0
M  V30 4 N  29.6587 39.0647 84.4744 0
M  V30 5 C  30.7008 38.8222 85.4826 0
M  V30 6 C  29.0463 37.9289 83.8902 0
M  V30 7 C  27.6546 37.7654 83.9579 0
M  V30 8 C  27.0158 36.6095 83.4773 0
M  V30 9 C  27.8234 35.6514 82.8434 0
M  V30 10 C  29.2006 35.8215 82.7180 0
M  V30 11 C  29.8178 36.9506 83.2468 0
M  V30 12 F  31.1600 37.0893 83.1210 0
M  V30 13 C  25.5313 36.3757 83.6110 0
M  V30 14 C  24.8189 35.6073 82.6839 0
M  V30 15 C  23.4487 35.4264 82.8559 0
M  V30 16 N  22.7373 35.9573 83.8832 0
M  V30 17 N  24.7953 36.9129 84.6563 0
M  V30 18 C  23.4007 36.7088 84.7729 0
M  V30 19 N  25.2601 37.6445 85.7000 0
M  V30 20 C  24.2084 37.9573 86.4174 0
M  V30 21 C  23.0097 37.4203 85.9462 0
M  V30 22 C  21.7088 37.5706 86.5982 0
M  V30 23 O  21.6828 37.6577 87.8275 0
M  V30 24 C  20.4781 37.6952 85.8025 0
M  V30 25 C  20.2982 37.8852 84.4290 0
M  V30 26 C  18.9555 37.9818 84.0460 0
M  V30 27 C  18.0877 37.9347 85.1258 0
M  V30 28 S  18.9289 37.6998 86.6193 0
M  V30 29 H  29.8572 41.4373 85.9166 0
M  V30 30 H  29.4975 42.4507 84.5252 0
M  V30 31 H  31.0252 41.5805 84.5836 0
M  V30 32 H  30.8507 37.7573 85.6634 0
M  V30 33 H  31.6561 39.2377 85.1570 0
M  V30 34 H  30.4366 39.2738 86.4390 0
M  V30 35 H  27.0825 38.5577 84.4115 0
M  V30 36 H  27.3964 34.7459 82.4411 0
M  V30 37 H  29.7946 35.0684 82.2212 0
M  V30 38 H  25.3164 35.1655 81.8360 0
M  V30 39 H  22.8837 34.8321 82.1530 0
M  V30 40 H  24.3150 38.5586 87.3105 0
M  V30 41 H  21.1055 37.9575 83.7178 0
M  V30 42 H  18.6311 38.1100 83.0234 0
M  V30 43 H  17.0089 38.0111 85.1207 0
M  V30 END ATOM
M  V30 BEGIN BOND
M  V30 1 1 1 2
M  V30 2 1 1 29
M  V30 3 1 1 30
M  V30 4 1 1 31
M  V30 5 2 2 3
M  V30 6 1 2 4
M  V30 7 1 4 5
M  V30 8 1 4 6
M  V30 9 1 5 32
M  V30 10 1 5 33
M  V30 11 1 5 34
M  V30 12 2 6 7
M  V30 13 1 6 11
M  V30 14 1 7 8
M  V30 15 1 7 35
M  V30 16 2 8 9
M  V30 17 1 8 13
M  V30 18 1 9 10
M  V30 19 1 9 36
M  V30 20 2 10 11
M  V30 21 1 10 37
M  V30 22 1 11 12
M  V30 23 2 13 14
M  V30 24 1 13 17
M  V30 25 1 14 15
M  V30 26 1 14 38
M  V30 27 2 15 16
M  V30 28 1 15 39
M  V30 29 1 16 18
M  V30 30 1 17 18
M  V30 31 1 17 19
M  V30 32 2 18 21
M  V30 33 2 19 20
M  V30 34 1 20 21
M  V30 35 1 20 40
M  V30 36 1 21 22
M  V30 37 2 22 23
M  V30 38 1 22 24
M  V30 39 2 24 25
M  V30 40 1 24 28
M  V30 41 1 25 26
M  V30 42 1 25 41
M  V30 43 2 26 27
M  V30 44 1 26 42
M  V30 45 1 27 28
M  V30 46 1 27 43
M  V30 END BOND
M  V30 END CTAB
M  END
> <s_m_entry_id>
528

> <s_m_entry_name>
result.2109

> <s_m_Source_Path>
D:\OneDrive - zju.edu.cn\DOC\A-Finished\LCK_VS\Planet\LCK-8617

> <s_m_Source_File>
glide-dock_SP_top1262_2_pv.maegz

> <i_m_Source_File_Index>
528

> <PLANET_affinity>
7.453

> <i_lp_mmshare_version>
54117

> <i_f3d_flags>
0

> <s_epik_input>
W0NIM11DKD1PKU4oW0NIM10pYzFbY0hdYyhbY0hdW2NIXWMxRiktYzJbY0hdW2NIXW5jKG4yMyljKFtjSF1uMylDKD1PKWM0W2NIXVtjSF1bY0hdczQ=

> <s_epik_cmdline>
J2VwaWtfcHl0aG9uJywgJy1waCcsICc3LjAnLCAnLXRuJywgJzgnLCAnLW1hJywgJzUwMCcsICctaW1hZScsICc8aW5maWxlLm1hZT4nLCAnLW9tYWUnLCAnPG91dGZpbGUubWFlPic=

> <r_epik_Ionization_Penalty>
  0.0000

> <r_epik_Ionization_Penalty_Charging>
  0.0000

> <r_epik_Ionization_Penalty_Neutral>
  0.0000

> <r_epik_State_Penalty>
  0.0000

> <r_epik_Charging_Adjusted_Penalty>
0

> <i_epik_Tot_Q>
0

> <i_epik_Tot_abs_Q>
0

> <s_lp_Force_Field>
S-OPLS

> <r_lp_Energy>
48.0585

> <b_lp_Chiralities_Consistent>
1

> <s_lp_Variant>
CC(N(C1=CC(C2=CC=NC3=C(C(C4=CC=CS4)=O)C=NN23)=CC=C1F)C)=O-1

> <s_i_glide_gridfile>
glide-grid_1

> <i_i_glide_lignum>
1996

> <i_i_glide_rotatable_bonds>
5

> <r_i_docking_score>
-7.97955248631754

> <r_i_glide_ligand_efficiency>
-0.284984017368484

> <r_i_glide_ligand_efficiency_sa>
-0.865379323340752

> <r_i_glide_ligand_efficiency_ln>
-1.84191500368362

> <r_i_glide_gscore>
-7.97955248631754

> <r_i_glide_lipo>
-3.23809929101585

> <r_i_glide_hbond>
-0.32

> <r_i_glide_metal>
0

> <r_i_glide_rewards>
-1.77211936484443

> <r_i_glide_evdw>
-45.5229759216309

> <r_i_glide_ecoul>
-5.6989221572876

> <r_i_glide_erotb>
0.502533449363397

> <r_i_glide_esite>
-0.0208801601459795

> <r_i_glide_emodel>
-74.660630042327

> <r_i_glide_energy>
-51.2218980789185

> <r_i_glide_einternal>
3.53767466545105

> <i_i_glide_confnum>
60

> <i_i_glide_posenum>
156

> <r_i_glide_eff_state_penalty>
0

> <r_lp_tautomer_probability>
1

> <s_m_subgroup_title>
glide-dock_SP_top1262_2_pv

> <s_m_subgroupid>
glide-dock_SP_top1262_2_pv

> <b_m_subgroup_collapsed>
0

$$$$
FC(F)(F)C1=CC(NC(C2=CC(NC3=NC=CC(C4CN(C(C=C)=O)CCC4)=N3)=C(C)C=C2)=O)=CC(N5C=...
                    3D
 Schrodinger Suite 2021-3.
  0  0  0     0  0            999 V3000
M  V30 BEGIN CTAB
M  V30 COUNTS 73 77 0 0 0
M  V30 BEGIN ATOM
M  V30 1 C  23.6759 42.2076 94.4934 0
M  V30 2 C  24.6424 41.8855 93.3765 0
M  V30 3 C  25.1481 42.7146 92.3851 0
M  V30 4 N  25.1285 40.6614 93.2439 0
M  V30 5 C  25.9156 40.7132 92.1986 0
M  V30 6 N  25.9772 41.9489 91.5999 0
M  V30 7 C  26.7192 42.3221 90.4559 0
M  V30 8 C  27.2249 43.6201 90.3194 0
M  V30 9 C  26.9627 41.3817 89.4467 0
M  V30 10 C  27.7337 41.7118 88.3203 0
M  V30 11 C  28.2289 43.0128 88.2066 0
M  V30 12 C  27.9742 43.9752 89.1929 0
M  V30 13 C  28.5163 45.3924 89.0127 0
M  V30 14 F  28.0638 45.9039 87.8670 0
M  V30 15 F  28.1513 46.2083 90.0038 0
M  V30 16 F  29.8483 45.3582 88.9706 0
M  V30 17 N  28.0544 40.8215 87.2714 0
M  V30 18 C  27.6409 39.5514 87.0765 0
M  V30 19 O  26.8809 38.9340 87.8255 0
M  V30 20 C  28.1372 38.8780 85.8195 0
M  V30 21 C  27.3044 37.9661 85.1654 0
M  V30 22 C  27.7259 37.2377 84.0448 0
M  V30 23 C  29.0565 37.3889 83.6096 0
M  V30 24 C  29.6347 36.5535 82.4674 0
M  V30 25 C  29.8890 38.3213 84.2406 0
M  V30 26 C  29.4338 39.0711 85.3271 0
M  V30 27 N  26.8667 36.3556 83.3620 0
M  V30 28 C  25.4864 36.1171 83.4045 0
M  V30 29 N  25.0392 35.2642 82.4530 0
M  V30 30 C  23.7069 35.0227 82.4425 0
M  V30 31 C  22.8205 35.5900 83.3460 0
M  V30 32 C  23.3595 36.4736 84.2893 0
M  V30 33 N  24.6945 36.7357 84.3219 0
M  V30 34 C  22.4969 37.2319 85.3131 0 CFG=2
M  V30 35 C  20.9928 36.8834 85.1907 0
M  V30 36 N  20.1850 37.7150 86.1012 0
M  V30 37 C  19.4246 37.1045 87.0511 0
M  V30 38 O  19.6819 35.9591 87.4438 0
M  V30 39 C  18.2472 37.8037 87.5250 0
M  V30 40 C  17.4526 37.2804 88.4763 0
M  V30 41 C  20.2991 39.1733 85.9182 0
M  V30 42 C  21.7748 39.5325 86.1997 0
M  V30 43 C  22.7623 38.7596 85.3055 0
M  V30 44 H  23.4042 43.2638 94.5074 0
M  V30 45 H  22.7497 41.6431 94.3956 0
M  V30 46 H  24.0879 41.9659 95.4729 0
M  V30 47 H  24.9765 43.7570 92.1653 0
M  V30 48 H  26.4827 39.8854 91.8024 0
M  V30 49 H  27.0354 44.3503 91.0950 0
M  V30 50 H  26.5498 40.3945 89.5697 0
M  V30 51 H  28.8170 43.2938 87.3445 0
M  V30 52 H  28.6617 41.1961 86.5582 0
M  V30 53 H  26.3241 37.8252 85.5825 0
M  V30 54 H  30.5139 37.0245 82.0246 0
M  V30 55 H  29.9221 35.5677 82.8374 0
M  V30 56 H  28.9231 36.3987 81.6571 0
M  V30 57 H  30.9087 38.4499 83.9077 0
M  V30 58 H  30.1210 39.7474 85.8162 0
M  V30 59 H  27.3236 35.8153 82.6444 0
M  V30 60 H  23.3487 34.3578 81.6738 0
M  V30 61 H  21.7714 35.3564 83.2746 0
M  V30 62 H  22.8367 36.8231 86.2657 0
M  V30 63 H  20.8526 35.8188 85.3847 0
M  V30 64 H  20.6473 37.0974 84.1774 0
M  V30 65 H  17.9761 38.7493 87.0803 0
M  V30 66 H  17.6822 36.3413 88.9514 0
M  V30 67 H  16.5564 37.7848 88.7974 0
M  V30 68 H  20.0381 39.4062 84.8828 0
M  V30 69 H  19.6354 39.7627 86.5554 0
M  V30 70 H  21.9151 40.6049 86.0553 0
M  V30 71 H  21.9975 39.3486 87.2527 0
M  V30 72 H  22.6996 39.1452 84.2872 0
M  V30 73 H  23.7684 38.9672 85.6783 0
M  V30 END ATOM
M  V30 BEGIN BOND
M  V30 1 1 1 2
M  V30 2 1 1 44
M  V30 3 1 1 45
M  V30 4 1 1 46
M  V30 5 2 2 3
M  V30 6 1 2 4
M  V30 7 1 3 6
M  V30 8 1 3 47
M  V30 9 2 4 5
M  V30 10 1 5 6
M  V30 11 1 5 48
M  V30 12 1 6 7
M  V30 13 2 7 8
M  V30 14 1 7 9
M  V30 15 1 8 12
M  V30 16 1 8 49
M  V30 17 2 9 10
M  V30 18 1 9 50
M  V30 19 1 10 11
M  V30 20 1 10 17
M  V30 21 2 11 12
M  V30 22 1 11 51
M  V30 23 1 12 13
M  V30 24 1 13 14
M  V30 25 1 13 15
M  V30 26 1 13 16
M  V30 27 1 17 18
M  V30 28 1 17 52
M  V30 29 2 18 19
M  V30 30 1 18 20
M  V30 31 2 20 21
M  V30 32 1 20 26
M  V30 33 1 21 22
M  V30 34 1 21 53
M  V30 35 2 22 23
M  V30 36 1 22 27
M  V30 37 1 23 24
M  V30 38 1 23 25
M  V30 39 1 24 54
M  V30 40 1 24 55
M  V30 41 1 24 56
M  V30 42 2 25 26
M  V30 43 1 25 57
M  V30 44 1 26 58
M  V30 45 1 27 28
M  V30 46 1 27 59
M  V30 47 2 28 29
M  V30 48 1 28 33
M  V30 49 1 29 30
M  V30 50 2 30 31
M  V30 51 1 30 60
M  V30 52 1 31 32
M  V30 53 1 31 61
M  V30 54 2 32 33
M  V30 55 1 32 34
M  V30 56 1 34 35
M  V30 57 1 34 43
M  V30 58 1 34 62
M  V30 59 1 35 36
M  V30 60 1 35 63
M  V30 61 1 35 64
M  V30 62 1 36 37
M  V30 63 1 36 41
M  V30 64 2 37 38
M  V30 65 1 37 39
M  V30 66 2 39 40
M  V30 67 1 39 65
M  V30 68 1 40 66
M  V30 69 1 40 67
M  V30 70 1 41 42
M  V30 71 1 41 68
M  V30 72 1 41 69
M  V30 73 1 42 43
M  V30 74 1 42 70
M  V30 75 1 42 71
M  V30 76 1 43 72
M  V30 77 1 43 73
M  V30 END BOND
M  V30 END CTAB
M  END
> <s_m_entry_id>
535

> <s_m_entry_name>
result.1798

> <s_m_Source_Path>
D:\OneDrive - zju.edu.cn\DOC\A-Finished\LCK_VS\Planet\LCK-8617

> <s_m_Source_File>
glide-dock_SP_top1262_2_pv.maegz

> <i_m_Source_File_Index>
535

> <PLANET_affinity>
9.122

> <i_lp_mmshare_version>
54117

> <i_f3d_flags>
0

> <s_epik_input>
W0NIM11jMVtjSF1uKFtjSF1uMSktYzJbY0hdYyhDKEYpKEYpRilbY0hdYyhbY0hdMilbTkhdQyg9TyljM1tjSF1jKGMoW0NIM10pW2NIXVtjSF0zKVtOSF1jNG5bY0hdW2NIXWMobjQpW0NAQEhdNVtDSDJdTihDKD1PKVtDSF09W0NIMl0pW0NIMl1bQ0gyXVtDSDJdNQ==

> <s_epik_cmdline>
J2VwaWtfcHl0aG9uJywgJy1waCcsICc3LjAnLCAnLXRuJywgJzgnLCAnLW1hJywgJzUwMCcsICctaW1hZScsICc8aW5maWxlLm1hZT4nLCAnLW9tYWUnLCAnPG91dGZpbGUubWFlPic=

> <r_epik_Ionization_Penalty>
  0.1518

> <r_epik_Ionization_Penalty_Charging>
  0.1503

> <r_epik_Ionization_Penalty_Neutral>
  0.0014

> <r_epik_State_Penalty>
  0.1396

> <r_epik_Charging_Adjusted_Penalty>
0.289975

> <i_epik_Tot_Q>
0

> <i_epik_Tot_abs_Q>
0

> <s_lp_Force_Field>
S-OPLS

> <r_lp_Energy>
52.7441

> <b_lp_Chiralities_Consistent>
1

> <s_lp_Variant>
FC(F)(F)C1=CC(NC(C2=CC(NC3=NC=CC(C4CN(C(C=C)=O)CCC4)=N3)=C(C)C=C2)=O)=CC(N5C=...-1

> <s_i_glide_gridfile>
glide-grid_1

> <i_i_glide_lignum>
469

> <i_i_glide_rotatable_bonds>
10

> <r_i_docking_score>
-7.97370135796014

> <r_i_glide_ligand_efficiency>
-0.185434915301399

> <r_i_glide_ligand_efficiency_sa>
-0.649652321780406

> <r_i_glide_ligand_efficiency_ln>
-1.67472510379846

> <r_i_glide_gscore>
-8.11330135796014

> <r_i_glide_lipo>
-3.02094362609148

> <r_i_glide_hbond>
-0.244911424311177

> <r_i_glide_metal>
0

> <r_i_glide_rewards>
-2.27710701537607

> <r_i_glide_evdw>
-51.905834197998

> <r_i_glide_ecoul>
-2.72904062271118

> <r_i_glide_erotb>
0.434308511125161

> <r_i_glide_esite>
0

> <r_i_glide_emodel>
-78.6969749902107

> <r_i_glide_energy>
-54.6348748207092

> <r_i_glide_einternal>
8.30756187438965

> <i_i_glide_confnum>
151

> <i_i_glide_posenum>
152

> <r_i_glide_eff_state_penalty>
0.1396

> <r_lp_tautomer_probability>
1

> <s_m_subgroup_title>
glide-dock_SP_top1262_2_pv

> <s_m_subgroupid>
glide-dock_SP_top1262_2_pv

> <b_m_subgroup_collapsed>
0

$$$$
NC1=C(C(C2=CC=CC(Br)=C2)=CC(C3=CC=C(N4CCOCC4)N=C3)=N5)C5=NC=N1.[H]Cl.[H]Cl
                    3D
 Schrodinger Suite 2021-3.
  0  0  0     0  0            999 V3000
M  V30 BEGIN CTAB
M  V30 COUNTS 49 53 0 0 0
M  V30 BEGIN ATOM
M  V30 1 Br 18.8230 38.7316 84.1551 0
M  V30 2 C  20.1010 37.7061 85.1259 0
M  V30 3 C  21.4585 37.8082 84.8216 0
M  V30 4 C  19.6825 36.8557 86.1487 0
M  V30 5 C  20.6109 36.0843 86.8452 0
M  V30 6 C  21.9655 36.1833 86.5326 0
M  V30 7 C  22.4024 37.0521 85.5258 0
M  V30 8 C  23.8510 37.2290 85.2728 0
M  V30 9 C  24.5364 38.1390 86.0793 0
M  V30 10 C  25.9107 38.3412 85.9381 0
M  V30 11 N  26.6266 37.6831 84.9921 0
M  V30 12 C  25.9946 36.8013 84.1777 0
M  V30 13 C  24.5952 36.5241 84.2713 0
M  V30 14 N  26.8088 36.1896 83.2775 0
M  V30 15 C  26.2282 35.2762 82.4725 0
M  V30 16 N  24.9229 34.9340 82.4457 0
M  V30 17 C  24.1183 35.5571 83.3306 0
M  V30 18 N  22.7873 35.1656 83.2437 0
M  V30 19 C  26.6696 39.3066 86.7989 0
M  V30 20 C  27.9136 39.8310 86.4137 0
M  V30 21 C  28.5874 40.7433 87.2265 0
M  V30 22 C  28.0156 41.1407 88.4446 0
M  V30 23 N  26.8071 40.6415 88.8296 0
M  V30 24 C  26.1729 39.7445 88.0352 0
M  V30 25 N  28.6123 42.0935 89.2831 0
M  V30 26 C  28.0497 42.4131 90.6166 0
M  V30 27 C  28.6326 43.6639 91.3032 0
M  V30 28 O  30.0478 43.5932 91.3116 0
M  V30 29 C  30.5574 43.5948 89.9897 0
M  V30 30 C  30.0683 42.3497 89.2207 0
M  V30 31 H  21.7805 38.4899 84.0473 0
M  V30 32 H  18.6334 36.7876 86.3976 0
M  V30 33 H  20.2826 35.4157 87.6282 0
M  V30 34 H  22.6790 35.5917 87.0879 0
M  V30 35 H  23.9765 38.6891 86.8201 0
M  V30 36 H  26.8834 34.7464 81.7979 0
M  V30 37 H  22.1299 35.5247 83.9184 0
M  V30 38 H  22.5164 34.4504 82.5746 0
M  V30 39 H  28.3652 39.5439 85.4751 0
M  V30 40 H  29.5347 41.1276 86.8855 0
M  V30 41 H  25.2360 39.3823 88.4298 0
M  V30 42 H  26.9751 42.5726 90.5149 0
M  V30 43 H  28.1676 41.5567 91.2779 0
M  V30 44 H  28.2825 43.7178 92.3345 0
M  V30 45 H  28.2889 44.5773 90.8131 0
M  V30 46 H  31.6467 43.5957 90.0373 0
M  V30 47 H  30.2743 44.5111 89.4667 0
M  V30 48 H  30.5983 41.4623 89.5710 0
M  V30 49 H  30.3706 42.5008 88.1855 0
M  V30 END ATOM
M  V30 BEGIN BOND
M  V30 1 1 1 2
M  V30 2 2 2 3
M  V30 3 1 2 4
M  V30 4 1 3 7
M  V30 5 1 3 31
M  V30 6 2 4 5
M  V30 7 1 4 32
M  V30 8 1 5 6
M  V30 9 1 5 33
M  V30 10 2 6 7
M  V30 11 1 6 34
M  V30 12 1 7 8
M  V30 13 2 8 9
M  V30 14 1 8 13
M  V30 15 1 9 10
M  V30 16 1 9 35
M  V30 17 2 10 11
M  V30 18 1 10 19
M  V30 19 1 11 12
M  V30 20 2 12 13
M  V30 21 1 12 14
M  V30 22 1 13 17
M  V30 23 2 14 15
M  V30 24 1 15 16
M  V30 25 1 15 36
M  V30 26 2 16 17
M  V30 27 1 17 18
M  V30 28 1 18 37
M  V30 29 1 18 38
M  V30 30 2 19 20
M  V30 31 1 19 24
M  V30 32 1 20 21
M  V30 33 1 20 39
M  V30 34 2 21 22
M  V30 35 1 21 40
M  V30 36 1 22 23
M  V30 37 1 22 25
M  V30 38 2 23 24
M  V30 39 1 24 41
M  V30 40 1 25 26
M  V30 41 1 25 30
M  V30 42 1 26 27
M  V30 43 1 26 42
M  V30 44 1 26 43
M  V30 45 1 27 28
M  V30 46 1 27 44
M  V30 47 1 27 45
M  V30 48 1 28 29
M  V30 49 1 29 30
M  V30 50 1 29 46
M  V30 51 1 29 47
M  V30 52 1 30 48
M  V30 53 1 30 49
M  V30 END BOND
M  V30 END CTAB
M  END
> <s_m_entry_id>
539

> <s_m_entry_name>
result.113

> <s_m_Source_Path>
D:\OneDrive - zju.edu.cn\DOC\A-Finished\LCK_VS\Planet\LCK-8617

> <s_m_Source_File>
glide-dock_SP_top1262_2_pv.maegz

> <i_m_Source_File_Index>
539

> <PLANET_affinity>
7.913

> <i_lp_mmshare_version>
54117

> <i_f3d_flags>
0

> <s_epik_input>
bjFbY0hdbmMoW05IMl0pYyhjMTIpYygtYyhbY0hdYzNCcilbY0hdW2NIXVtjSF0zKVtjSF1jKG4yKS1jNFtjSF1bY0hdYyhuW2NIXTQpTjVbQ0gyXVtDSDJdT1tDSDJdW0NIMl01

> <s_epik_cmdline>
J2VwaWtfcHl0aG9uJywgJy1waCcsICc3LjAnLCAnLXRuJywgJzgnLCAnLW1hJywgJzUwMCcsICctaW1hZScsICc8aW5maWxlLm1hZT4nLCAnLW9tYWUnLCAnPG91dGZpbGUubWFlPic=

> <r_epik_Ionization_Penalty>
  0.0002

> <r_epik_Ionization_Penalty_Charging>
  0.0000

> <r_epik_Ionization_Penalty_Neutral>
  0.0002

> <r_epik_State_Penalty>
  0.0000

> <r_epik_Charging_Adjusted_Penalty>
0

> <i_epik_Tot_Q>
0

> <i_epik_Tot_abs_Q>
0

> <s_lp_Force_Field>
S-OPLS

> <r_lp_Energy>
57.4532

> <b_lp_Chiralities_Consistent>
1

> <s_lp_Variant>
NC1=C(C(C2=CC=CC(Br)=C2)=CC(C3=CC=C(N4CCOCC4)N=C3)=N5)C5=NC=N1.[H]Cl.[H]Cl-1

> <s_i_glide_gridfile>
glide-grid_1

> <i_i_glide_lignum>
1400

> <i_i_glide_rotatable_bonds>
3

> <r_i_docking_score>
-7.96565387882032

> <r_i_glide_ligand_efficiency>
-0.265521795960677

> <r_i_glide_ligand_efficiency_sa>
-0.825037954512892

> <r_i_glide_ligand_efficiency_ln>
-1.80988335401854

> <r_i_glide_gscore>
-7.96565387882032

> <r_i_glide_lipo>
-2.69265461582909

> <r_i_glide_hbond>
-0.608

> <r_i_glide_metal>
0

> <r_i_glide_rewards>
-1.97258734823636

> <r_i_glide_evdw>
-39.4551887512207

> <r_i_glide_ecoul>
-6.10120153427124

> <r_i_glide_erotb>
0.197120738279649

> <r_i_glide_esite>
-0.00159298533279715

> <r_i_glide_emodel>
-66.3270905380144

> <r_i_glide_energy>
-45.5563902854919

> <r_i_glide_einternal>
0.712023735046387

> <i_i_glide_confnum>
9

> <i_i_glide_posenum>
240

> <r_i_glide_eff_state_penalty>
0

> <r_lp_tautomer_probability>
1

> <s_m_subgroup_title>
glide-dock_SP_top1262_2_pv

> <s_m_subgroupid>
glide-dock_SP_top1262_2_pv

> <b_m_subgroup_collapsed>
0

$$$$
ClC1=CC=CC(NC2=NC=NC3=CC(OC)=C(OC(N4[C@H](C)CN(C)CC4)=O)C=C23)=C1F
                    3D
 Schrodinger Suite 2021-3.
  0  0  0     0  0            999 V3000
M  V30 BEGIN CTAB
M  V30 COUNTS 56 59 0 0 0
M  V30 BEGIN ATOM
M  V30 1 Cl 18.3550 39.1559 84.5411 0
M  V30 2 C  19.5266 38.2735 85.4508 0
M  V30 3 C  19.1079 37.5005 86.5347 0
M  V30 4 C  20.0365 36.7587 87.2625 0
M  V30 5 C  21.3879 36.7998 86.9201 0
M  V30 6 C  21.8173 37.5756 85.8399 0
M  V30 7 C  20.8819 38.3168 85.1021 0
M  V30 8 F  21.2810 39.0655 84.0438 0
M  V30 9 N  23.1792 37.5773 85.4966 0
M  V30 10 C  23.7975 36.7999 84.5020 0
M  V30 11 N  23.0032 35.9173 83.8489 0
M  V30 12 C  23.5918 35.1563 82.9045 0
M  V30 13 N  24.8946 35.1714 82.5395 0
M  V30 14 C  25.1892 36.9309 84.2036 0
M  V30 15 C  25.6938 36.0633 83.1877 0
M  V30 16 C  26.0795 37.8409 84.8238 0
M  V30 17 C  27.4233 37.8874 84.4500 0
M  V30 18 C  27.9312 37.0134 83.4778 0
M  V30 19 C  27.0609 36.1152 82.8436 0
M  V30 20 O  29.2839 37.0885 83.1925 0
M  V30 21 C  29.8684 36.1363 82.3062 0
M  V30 22 O  28.2430 38.7831 85.1012 0
M  V30 23 C  28.4534 40.0297 84.5692 0
M  V30 24 O  28.1275 40.3425 83.4165 0
M  V30 25 N  29.0584 40.9021 85.5016 0
M  V30 26 C  29.2031 40.5270 86.9375 0 CFG=2
M  V30 27 C  27.9698 40.8891 87.7903 0
M  V30 28 C  30.5067 41.1566 87.5020 0
M  V30 29 N  30.6000 42.6608 87.1704 0 CHG=1 CFG=1
M  V30 30 C  31.9033 43.2590 87.7455 0
M  V30 31 C  30.5577 42.8506 85.6440 0
M  V30 32 C  29.2276 42.3109 85.0889 0
M  V30 33 H  18.0620 37.4680 86.8039 0
M  V30 34 H  19.7089 36.1496 88.0918 0
M  V30 35 H  22.0982 36.2124 87.4850 0
M  V30 36 H  23.7433 38.2961 85.9224 0
M  V30 37 H  22.9574 34.4213 82.4427 0
M  V30 38 H  25.7184 38.5108 85.5910 0
M  V30 39 H  27.4116 35.4418 82.0756 0
M  V30 40 H  30.9402 36.3203 82.2330 0
M  V30 41 H  29.7354 35.1150 82.6694 0
M  V30 42 H  29.4577 36.2115 81.2981 0
M  V30 43 H  29.3491 39.4484 87.0213 0
M  V30 44 H  28.1313 40.6400 88.8414 0
M  V30 45 H  27.0882 40.3358 87.4647 0
M  V30 46 H  27.7452 41.9562 87.7504 0
M  V30 47 H  30.5503 41.0867 88.5900 0
M  V30 48 H  31.3973 40.6723 87.0955 0
M  V30 49 H  32.7507 42.7420 87.2901 0
M  V30 50 H  31.9117 44.3240 87.5011 0
M  V30 51 H  31.8832 43.1133 88.8270 0
M  V30 52 H  30.6423 43.9242 85.4617 0
M  V30 53 H  31.4251 42.3580 85.1996 0
M  V30 54 H  28.3825 42.9153 85.4226 0
M  V30 55 H  29.2770 42.4017 84.0025 0
M  V30 56 H  29.7999 43.1314 87.5726 0
M  V30 END ATOM
M  V30 BEGIN BOND
M  V30 1 1 1 2
M  V30 2 2 2 3
M  V30 3 1 2 7
M  V30 4 1 3 4
M  V30 5 1 3 33
M  V30 6 2 4 5
M  V30 7 1 4 34
M  V30 8 1 5 6
M  V30 9 1 5 35
M  V30 10 2 6 7
M  V30 11 1 6 9
M  V30 12 1 7 8
M  V30 13 1 9 10
M  V30 14 1 9 36
M  V30 15 2 10 11
M  V30 16 1 10 14
M  V30 17 1 11 12
M  V30 18 2 12 13
M  V30 19 1 12 37
M  V30 20 1 13 15
M  V30 21 2 14 15
M  V30 22 1 14 16
M  V30 23 1 15 19
M  V30 24 2 16 17
M  V30 25 1 16 38
M  V30 26 1 17 18
M  V30 27 1 17 22
M  V30 28 2 18 19
M  V30 29 1 18 20
M  V30 30 1 19 39
M  V30 31 1 20 21
M  V30 32 1 21 40
M  V30 33 1 21 41
M  V30 34 1 21 42
M  V30 35 1 22 23
M  V30 36 2 23 24
M  V30 37 1 23 25
M  V30 38 1 25 26
M  V30 39 1 25 32
M  V30 40 1 26 27
M  V30 41 1 26 28
M  V30 42 1 26 43
M  V30 43 1 27 44
M  V30 44 1 27 45
M  V30 45 1 27 46
M  V30 46 1 28 29
M  V30 47 1 28 47
M  V30 48 1 28 48
M  V30 49 1 29 30
M  V30 50 1 29 31
M  V30 51 1 29 56
M  V30 52 1 30 49
M  V30 53 1 30 50
M  V30 54 1 30 51
M  V30 55 1 31 32
M  V30 56 1 31 52
M  V30 57 1 31 53
M  V30 58 1 32 54
M  V30 59 1 32 55
M  V30 END BOND
M  V30 END CTAB
M  END
> <s_m_entry_id>
542

> <s_m_entry_name>
result.749

> <s_m_Source_Path>
D:\OneDrive - zju.edu.cn\DOC\A-Finished\LCK_VS\Planet\LCK-8617

> <s_m_Source_File>
glide-dock_SP_top1262_2_pv.maegz

> <i_m_Source_File_Index>
542

> <PLANET_affinity>
7.775

> <i_lp_mmshare_version>
54117

> <i_f3d_flags>
0

> <s_epik_input>
Q2xjMVtjSF1bY0hdW2NIXWMoYzFGKVtOSF1jMm5bY0hdbmMoYzIzKVtjSF1jKE9bQ0gzXSljKFtjSF0zKU9DKD1PKU40W0NASF0oW0NIM10pW0NIMl1OKFtDSDNdKVtDSDJdW0NIMl00

> <s_epik_cmdline>
J2VwaWtfcHl0aG9uJywgJy1waCcsICc3LjAnLCAnLXRuJywgJzgnLCAnLW1hJywgJzUwMCcsICctaW1hZScsICc8aW5maWxlLm1hZT4nLCAnLW9tYWUnLCAnPG91dGZpbGUubWFlPic=

> <r_epik_Ionization_Penalty>
  0.3210

> <r_epik_Ionization_Penalty_Charging>
  0.3208

> <r_epik_Ionization_Penalty_Neutral>
  0.0002

> <r_epik_State_Penalty>
  0.3154

> <r_epik_Charging_Adjusted_Penalty>
0.636176

> <i_epik_Tot_Q>
1

> <i_epik_Tot_abs_Q>
1

> <s_lp_Force_Field>
S-OPLS

> <r_lp_Energy>
66.0805

> <b_lp_Chiralities_Consistent>
1

> <s_lp_Variant>
ClC1=CC=CC(NC2=NC=NC3=CC(OC)=C(OC(N4[C@H](C)CN(C)CC4)=O)C=C23)=C1F-2

> <s_i_glide_gridfile>
glide-grid_1

> <i_i_glide_lignum>
1540

> <i_i_glide_rotatable_bonds>
6

> <r_i_docking_score>
-7.95669548908175

> <r_i_glide_ligand_efficiency>
-0.248646734033805

> <r_i_glide_ligand_efficiency_sa>
-0.789404173435482

> <r_i_glide_ligand_efficiency_ln>
-1.78172101133285

> <r_i_glide_gscore>
-8.27209548908175

> <r_i_glide_lipo>
-2.93688137374478

> <r_i_glide_hbond>
-0.331186224147411

> <r_i_glide_metal>
0

> <r_i_glide_rewards>
-1.52543925331366

> <r_i_glide_evdw>
-41.6378860473633

> <r_i_glide_ecoul>
-12.3988971710205

> <r_i_glide_erotb>
0.473836922009614

> <r_i_glide_esite>
-0.0106966818642715

> <r_i_glide_emodel>
-82.0978390732844

> <r_i_glide_energy>
-54.0367832183838

> <r_i_glide_einternal>
6.34760236740112

> <i_i_glide_confnum>
12

> <i_i_glide_posenum>
333

> <r_i_glide_eff_state_penalty>
0.3154

> <r_lp_tautomer_probability>
0.999978

> <s_m_subgroup_title>
glide-dock_SP_top1262_2_pv

> <s_m_subgroupid>
glide-dock_SP_top1262_2_pv

> <b_m_subgroup_collapsed>
0

$$$$
O=C(C1=C2C(N=C(OCC)N2CC3=CC=C(C4=CC=CC=C4C5=NC(ON5)=O)C=C3)=CC=C1)OCC6=C(C)OC...
                    3D
 Schrodinger Suite 2021-3.
  0  0  0     0  0            999 V3000
M  V30 BEGIN CTAB
M  V30 COUNTS 66 71 0 0 0
M  V30 BEGIN ATOM
M  V30 1 O  19.6394 39.0902 85.6951 0
M  V30 2 C  19.1738 38.5111 84.5643 0
M  V30 3 O  18.0982 38.7562 84.0187 0
M  V30 4 O  20.0962 37.6255 84.1258 0
M  V30 5 C  21.1116 37.6563 84.9973 0
M  V30 6 C  22.2576 36.7079 84.7174 0
M  V30 7 C  20.8387 38.5496 85.9455 0
M  V30 8 C  21.5337 39.0053 87.2135 0
M  V30 9 O  21.8890 40.3861 87.1762 0
M  V30 10 C  22.4952 40.9511 88.2508 0
M  V30 11 O  22.7709 40.3569 89.2939 0
M  V30 12 C  22.8629 42.3681 88.0270 0
M  V30 13 C  21.8480 43.3283 88.1349 0
M  V30 14 C  22.0921 44.6932 88.0136 0
M  V30 15 C  23.3647 45.1826 87.7355 0
M  V30 16 C  24.4082 44.2619 87.6056 0
M  V30 17 C  24.1600 42.8637 87.7551 0
M  V30 18 N  25.7256 44.5298 87.3599 0
M  V30 19 C  26.2930 43.3510 87.3781 0
M  V30 20 O  27.6442 43.1450 87.2373 0
M  V30 21 C  28.3544 44.1003 86.4546 0
M  V30 22 C  29.7516 43.5358 86.1778 0
M  V30 23 N  25.4213 42.2975 87.5775 0
M  V30 24 C  25.8104 40.8921 87.6955 0
M  V30 25 C  26.7914 40.3902 86.6432 0
M  V30 26 C  28.0162 39.8587 87.0456 0
M  V30 27 C  28.8546 39.2689 86.1084 0
M  V30 28 C  28.4737 39.1826 84.7683 0
M  V30 29 C  27.2997 39.8233 84.3507 0
M  V30 30 C  26.4523 40.4125 85.2873 0
M  V30 31 C  29.2791 38.3294 83.8467 0
M  V30 32 C  30.6214 38.6787 83.6415 0
M  V30 33 C  31.4586 37.9028 82.8438 0
M  V30 34 C  30.9716 36.7459 82.2464 0
M  V30 35 C  29.6455 36.3714 82.4423 0
M  V30 36 C  28.7732 37.1546 83.2246 0
M  V30 37 C  27.3713 36.6816 83.3656 0
M  V30 38 N  26.7847 35.8906 82.4444 0
M  V30 39 C  25.5450 35.5136 82.9087 0
M  V30 40 O  24.6990 34.7569 82.4440 0
M  V30 41 O  25.4241 36.1607 84.0517 0
M  V30 42 N  26.5785 36.8825 84.3291 0
M  V30 43 H  23.0535 36.8333 85.4509 0
M  V30 44 H  21.9204 35.6731 84.7565 0
M  V30 45 H  22.6695 36.8924 83.7269 0
M  V30 46 H  20.8618 38.8157 88.0503 0
M  V30 47 H  22.4263 38.3963 87.3709 0
M  V30 48 H  20.8253 43.0259 88.3242 0
M  V30 49 H  21.2620 45.3802 88.1100 0
M  V30 50 H  23.5384 46.2421 87.6226 0
M  V30 51 H  27.8401 44.2967 85.5095 0
M  V30 52 H  28.4304 45.0484 86.9937 0
M  V30 53 H  30.3532 44.2416 85.6050 0
M  V30 54 H  30.2819 43.3233 87.1081 0
M  V30 55 H  29.6917 42.6074 85.6039 0
M  V30 56 H  26.1970 40.7420 88.7049 0
M  V30 57 H  24.9320 40.2594 87.6064 0
M  V30 58 H  28.3064 39.8582 88.0864 0
M  V30 59 H  29.7735 38.8081 86.4422 0
M  V30 60 H  26.9995 39.7877 83.3139 0
M  V30 61 H  25.5138 40.8400 84.9659 0
M  V30 62 H  31.0230 39.5673 84.1085 0
M  V30 63 H  32.4878 38.1961 82.6970 0
M  V30 64 H  31.6190 36.1364 81.6313 0
M  V30 65 H  29.3125 35.4594 81.9635 0
M  V30 66 H  27.1659 35.5860 81.5550 0
M  V30 END ATOM
M  V30 BEGIN BOND
M  V30 1 1 1 2
M  V30 2 1 1 7
M  V30 3 2 2 3
M  V30 4 1 2 4
M  V30 5 1 4 5
M  V30 6 1 5 6
M  V30 7 2 5 7
M  V30 8 1 6 43
M  V30 9 1 6 44
M  V30 10 1 6 45
M  V30 11 1 7 8
M  V30 12 1 8 9
M  V30 13 1 8 46
M  V30 14 1 8 47
M  V30 15 1 9 10
M  V30 16 2 10 11
M  V30 17 1 10 12
M  V30 18 2 12 13
M  V30 19 1 12 17
M  V30 20 1 13 14
M  V30 21 1 13 48
M  V30 22 2 14 15
M  V30 23 1 14 49
M  V30 24 1 15 16
M  V30 25 1 15 50
M  V30 26 2 16 17
M  V30 27 1 16 18
M  V30 28 1 17 23
M  V30 29 2 18 19
M  V30 30 1 19 20
M  V30 31 1 19 23
M  V30 32 1 20 21
M  V30 33 1 21 22
M  V30 34 1 21 51
M  V30 35 1 21 52
M  V30 36 1 22 53
M  V30 37 1 22 54
M  V30 38 1 22 55
M  V30 39 1 23 24
M  V30 40 1 24 25
M  V30 41 1 24 56
M  V30 42 1 24 57
M  V30 43 2 25 26
M  V30 44 1 25 30
M  V30 45 1 26 27
M  V30 46 1 26 58
M  V30 47 2 27 28
M  V30 48 1 27 59
M  V30 49 1 28 29
M  V30 50 1 28 31
M  V30 51 2 29 30
M  V30 52 1 29 60
M  V30 53 1 30 61
M  V30 54 2 31 32
M  V30 55 1 31 36
M  V30 56 1 32 33
M  V30 57 1 32 62
M  V30 58 2 33 34
M  V30 59 1 33 63
M  V30 60 1 34 35
M  V30 61 1 34 64
M  V30 62 2 35 36
M  V30 63 1 35 65
M  V30 64 1 36 37
M  V30 65 1 37 38
M  V30 66 2 37 42
M  V30 67 1 38 39
M  V30 68 1 38 66
M  V30 69 2 39 40
M  V30 70 1 39 41
M  V30 71 1 41 42
M  V30 END BOND
M  V30 END CTAB
M  END
> <s_m_entry_id>
544

> <s_m_entry_name>
result.5825

> <s_m_Source_Path>
D:\OneDrive - zju.edu.cn\DOC\A-Finished\LCK_VS\Planet\LCK-8617

> <s_m_Source_File>
glide-dock_SP_top1262_2_pv.maegz

> <i_m_Source_File_Index>
544

> <PLANET_affinity>
9.617

> <i_lp_mmshare_version>
54117

> <i_f3d_flags>
0

> <s_epik_input>
Tz1jMW9jKGMobzEpW0NIM10pW0NIMl1PQyg9TyljKFtjSF1bY0hdW2NIXTIpYyhjMjMpbihjKG4zKU9bQ0gyXVtDSDNdKVtDSDJdYzRbY0hdW2NIXWMoW2NIXVtjSF00KS1jNVtjSF1bY0hdW2NIXVtjSF1jNS1jNltuSF1jKD1PKW9uNg==

> <s_epik_cmdline>
J2VwaWtfcHl0aG9uJywgJy1waCcsICc3LjAnLCAnLXRuJywgJzgnLCAnLW1hJywgJzUwMCcsICctaW1hZScsICc8aW5maWxlLm1hZT4nLCAnLW9tYWUnLCAnPG91dGZpbGUubWFlPic=

> <r_epik_Ionization_Penalty>
  4.7434

> <r_epik_Ionization_Penalty_Charging>
  4.5558

> <r_epik_Ionization_Penalty_Neutral>
  0.1875

> <r_epik_State_Penalty>
  0.0000

> <r_epik_Charging_Adjusted_Penalty>
4.5558

> <i_epik_Tot_Q>
0

> <i_epik_Tot_abs_Q>
0

> <s_epik_Chemistry_Notes>
This compound has an ester and may undergo hydrolysis at high or low pH.

> <s_lp_Force_Field>
S-OPLS

> <r_lp_Energy>
7.25598

> <b_lp_Chiralities_Consistent>
1

> <s_lp_Variant>
O=C(C1=C2C(N=C(OCC)N2CC3=CC=C(C4=CC=CC=C4C5=NC(ON5)=O)C=C3)=CC=C1)OCC6=C(C)OC...-1

> <s_i_glide_gridfile>
glide-grid_1

> <i_i_glide_lignum>
314

> <i_i_glide_rotatable_bonds>
10

> <r_i_docking_score>
-7.95633727136821

> <r_i_glide_ligand_efficiency>
-0.189436601699243

> <r_i_glide_ligand_efficiency_sa>
-0.658486674202909

> <r_i_glide_ligand_efficiency_ln>
-1.67937781914204

> <r_i_glide_gscore>
-7.95633727136821

> <r_i_glide_lipo>
-2.15452517001714

> <r_i_glide_hbond>
-0.864

> <r_i_glide_metal>
0

> <r_i_glide_rewards>
-1.56183172979697

> <r_i_glide_evdw>
-46.5328140258789

> <r_i_glide_ecoul>
-9.20086193084717

> <r_i_glide_erotb>
0.344247771206224

> <r_i_glide_esite>
-0.0134581518393147

> <r_i_glide_emodel>
-78.5346855143254

> <r_i_glide_energy>
-55.7336759567261

> <r_i_glide_einternal>
9.47882175445557

> <i_i_glide_confnum>
225

> <i_i_glide_posenum>
280

> <r_i_glide_eff_state_penalty>
0

> <r_lp_tautomer_probability>
1

> <s_m_subgroup_title>
glide-dock_SP_top1262_2_pv

> <s_m_subgroupid>
glide-dock_SP_top1262_2_pv

> <b_m_subgroup_collapsed>
0

$$$$
CN1C=C(C2=CN=C(NC3=C(F)C(C)=C4N=CN(CC5CC5)C4=C3)C=C2)N=C1
                    3D
 Schrodinger Suite 2021-3.
  0  0  0     0  0            999 V3000
M  V30 BEGIN CTAB
M  V30 COUNTS 49 53 0 0 0
M  V30 BEGIN ATOM
M  V30 1 C  19.4974 36.5346 87.3047 0
M  V30 2 N  20.3862 36.4995 86.1603 0
M  V30 3 C  21.7337 36.2598 86.1529 0
M  V30 4 C  22.1437 36.3592 84.8255 0
M  V30 5 N  21.1167 36.6582 84.0439 0
M  V30 6 C  20.0822 36.7567 84.8476 0
M  V30 7 C  23.5266 36.2094 84.2897 0
M  V30 8 C  23.8196 35.5597 83.0804 0
M  V30 9 N  25.0787 35.4756 82.5671 0
M  V30 10 C  26.0946 36.0566 83.2601 0
M  V30 11 C  25.8828 36.6826 84.4934 0
M  V30 12 C  24.5911 36.7574 85.0068 0
M  V30 13 N  27.3723 35.9826 82.6864 0
M  V30 14 C  28.5768 36.5978 83.0727 0
M  V30 15 C  28.6448 37.9724 83.3707 0
M  V30 16 F  27.5296 38.7382 83.2648 0
M  V30 17 C  29.8466 38.5933 83.7361 0
M  V30 18 C  29.8714 40.0804 84.0707 0
M  V30 19 C  29.7288 35.8049 83.0506 0
M  V30 20 C  30.9312 36.4143 83.4288 0
M  V30 21 C  31.0018 37.7920 83.7723 0
M  V30 22 N  32.2290 35.9591 83.5912 0
M  V30 23 C  32.9696 37.0496 83.9867 0
M  V30 24 N  32.2821 38.1528 84.1048 0
M  V30 25 C  32.7455 34.6126 83.3778 0
M  V30 26 C  32.8615 34.3213 81.8737 0
M  V30 27 C  33.9591 34.9483 81.0533 0
M  V30 28 C  33.9732 33.4553 81.3473 0
M  V30 29 H  18.7257 37.2923 87.1530 0
M  V30 30 H  19.0279 35.5571 87.4205 0
M  V30 31 H  20.0638 36.7580 88.2085 0
M  V30 32 H  22.2686 36.0397 87.0644 0
M  V30 33 H  19.0704 37.0105 84.5662 0
M  V30 34 H  23.0309 35.1076 82.4944 0
M  V30 35 H  26.7009 37.1134 85.0509 0
M  V30 36 H  24.4203 37.2610 85.9448 0
M  V30 37 H  27.4123 35.4664 81.8163 0
M  V30 38 H  28.8884 40.4642 84.3516 0
M  V30 39 H  30.5361 40.2621 84.9204 0
M  V30 40 H  30.2535 40.6595 83.2263 0
M  V30 41 H  29.6848 34.7571 82.7900 0
M  V30 42 H  34.0296 36.9414 84.1689 0
M  V30 43 H  32.0804 33.9051 83.8681 0
M  V30 44 H  33.7144 34.5273 83.8741 0
M  V30 45 H  31.8849 34.2175 81.3995 0
M  V30 46 H  34.6768 35.5991 81.5513 0
M  V30 47 H  33.7140 35.2895 80.0474 0
M  V30 48 H  33.7439 32.7557 80.5415 0
M  V30 49 H  34.7052 33.0545 82.0508 0
M  V30 END ATOM
M  V30 BEGIN BOND
M  V30 1 1 1 2
M  V30 2 1 1 29
M  V30 3 1 1 30
M  V30 4 1 1 31
M  V30 5 1 2 3
M  V30 6 1 2 6
M  V30 7 2 3 4
M  V30 8 1 3 32
M  V30 9 1 4 5
M  V30 10 1 4 7
M  V30 11 2 5 6
M  V30 12 1 6 33
M  V30 13 2 7 8
M  V30 14 1 7 12
M  V30 15 1 8 9
M  V30 16 1 8 34
M  V30 17 2 9 10
M  V30 18 1 10 11
M  V30 19 1 10 13
M  V30 20 2 11 12
M  V30 21 1 11 35
M  V30 22 1 12 36
M  V30 23 1 13 14
M  V30 24 1 13 37
M  V30 25 2 14 15
M  V30 26 1 14 19
M  V30 27 1 15 16
M  V30 28 1 15 17
M  V30 29 1 17 18
M  V30 30 2 17 21
M  V30 31 1 18 38
M  V30 32 1 18 39
M  V30 33 1 18 40
M  V30 34 2 19 20
M  V30 35 1 19 41
M  V30 36 1 20 21
M  V30 37 1 20 22
M  V30 38 1 21 24
M  V30 39 1 22 23
M  V30 40 1 22 25
M  V30 41 2 23 24
M  V30 42 1 23 42
M  V30 43 1 25 26
M  V30 44 1 25 43
M  V30 45 1 25 44
M  V30 46 1 26 27
M  V30 47 1 26 28
M  V30 48 1 26 45
M  V30 49 1 27 28
M  V30 50 1 27 46
M  V30 51 1 27 47
M  V30 52 1 28 48
M  V30 53 1 28 49
M  V30 END BOND
M  V30 END CTAB
M  END
> <s_m_entry_id>
549

> <s_m_entry_name>
result.2045

> <s_m_Source_Path>
D:\OneDrive - zju.edu.cn\DOC\A-Finished\LCK_VS\Planet\LCK-8617

> <s_m_Source_File>
glide-dock_SP_top1262_2_pv.maegz

> <i_m_Source_File_Index>
549

> <PLANET_affinity>
7.212

> <i_lp_mmshare_version>
54117

> <i_f3d_flags>
0

> <s_epik_input>
W0NIM11uMVtjSF1jKG5bY0hdMSktYzJbY0hdbmMoW2NIXVtjSF0yKVtOSF1jKFtjSF0zKWMoRiljKFtDSDNdKWMoYzM0KW5bY0hdbjRbQ0gyXVtDSF01W0NIMl1bQ0gyXTU=

> <s_epik_cmdline>
J2VwaWtfcHl0aG9uJywgJy1waCcsICc3LjAnLCAnLXRuJywgJzgnLCAnLW1hJywgJzUwMCcsICctaW1hZScsICc8aW5maWxlLm1hZT4nLCAnLW9tYWUnLCAnPG91dGZpbGUubWFlPic=

> <r_epik_Ionization_Penalty>
  0.3202

> <r_epik_Ionization_Penalty_Charging>
  0.2587

> <r_epik_Ionization_Penalty_Neutral>
  0.0615

> <r_epik_State_Penalty>
  0.3027

> <r_epik_Charging_Adjusted_Penalty>
0.561351

> <i_epik_Tot_Q>
0

> <i_epik_Tot_abs_Q>
0

> <s_lp_Force_Field>
S-OPLS

> <r_lp_Energy>
34.2328

> <b_lp_Chiralities_Consistent>
1

> <s_lp_Variant>
CN1C=C(C2=CN=C(NC3=C(F)C(C)=C4N=CN(CC5CC5)C4=C3)C=C2)N=C1-1

> <s_i_glide_gridfile>
glide-grid_1

> <i_i_glide_lignum>
2367

> <i_i_glide_rotatable_bonds>
5

> <r_i_docking_score>
-7.94947024894634

> <r_i_glide_ligand_efficiency>
-0.283909651748084

> <r_i_glide_ligand_efficiency_sa>
-0.862116916549707

> <r_i_glide_ligand_efficiency_ln>
-1.83497114004547

> <r_i_glide_gscore>
-8.25217024894634

> <r_i_glide_lipo>
-2.98123478544743

> <r_i_glide_hbond>
-0.486127620351604

> <r_i_glide_metal>
0

> <r_i_glide_rewards>
-2.50352814953581

> <r_i_glide_evdw>
-38.1452598571777

> <r_i_glide_ecoul>
-5.68101263046265

> <r_i_glide_erotb>
0.478135193816783

> <r_i_glide_esite>
0

> <r_i_glide_emodel>
-63.040532647221

> <r_i_glide_energy>
-43.8262724876404

> <r_i_glide_einternal>
7.17937088012695

> <i_i_glide_confnum>
143

> <i_i_glide_posenum>
169

> <r_i_glide_eff_state_penalty>
0.3027

> <r_lp_tautomer_probability>
1

> <s_m_subgroup_title>
glide-dock_SP_top1262_2_pv

> <s_m_subgroupid>
glide-dock_SP_top1262_2_pv

> <b_m_subgroup_collapsed>
0

$$$$
C/C(C)=C/C(CCC(N1CCN(CC2=CC3=NC(C4=CC=CC5=C4C=NN5)=NC(N6CCOCC6)=C3S2)CC1)=O)=O
                    3D
 Schrodinger Suite 2021-3.
  0  0  0     0  0            999 V3000
M  V30 BEGIN CTAB
M  V30 COUNTS 77 82 0 0 0
M  V30 BEGIN ATOM
M  V30 1 C  23.4310 40.2054 93.3184 0
M  V30 2 C  23.9556 41.5737 93.7403 0
M  V30 3 C  23.1077 42.2357 94.8164 0
M  V30 4 C  25.0505 42.2058 93.2505 0
M  V30 5 C  25.9928 41.7329 92.2329 0
M  V30 6 O  25.7976 40.7627 91.5002 0
M  V30 7 C  27.3075 42.5228 92.1092 0
M  V30 8 C  27.9925 42.5261 90.7129 0
M  V30 9 C  27.4975 43.6147 89.7378 0
M  V30 10 O  26.5069 44.2801 90.0471 0
M  V30 11 N  28.1750 43.8269 88.5771 0
M  V30 12 C  29.2647 42.9563 88.0841 0
M  V30 13 C  28.7785 42.2496 86.7963 0
M  V30 14 N  28.3186 43.2987 85.7539 0 CHG=1
M  V30 15 C  27.2119 44.1922 86.3577 0
M  V30 16 C  27.7409 44.8799 87.6356 0
M  V30 17 C  27.8807 42.6651 84.4088 0
M  V30 18 C  26.8166 41.5862 84.5767 0
M  V30 19 C  25.4491 41.7214 84.7394 0
M  V30 20 S  27.2663 39.8875 84.5220 0
M  V30 21 C  25.5947 39.3601 84.6825 0
M  V30 22 C  24.7507 40.4909 84.8434 0
M  V30 23 C  24.9916 38.0802 84.6922 0
M  V30 24 N  25.6696 36.8774 84.4574 0
M  V30 25 C  24.9771 35.5741 84.5218 0
M  V30 26 C  24.2380 35.3015 83.1868 0
M  V30 27 O  25.1944 35.2619 82.1313 0
M  V30 28 C  25.9641 36.4616 82.0448 0
M  V30 29 C  26.6768 36.7288 83.3929 0
M  V30 30 N  23.6569 37.9878 84.9186 0
M  V30 31 C  22.9395 39.1209 85.0550 0
M  V30 32 N  23.4309 40.3853 85.0247 0
M  V30 33 C  21.4659 38.9436 85.1965 0
M  V30 34 C  20.7668 37.9839 84.4432 0
M  V30 35 C  19.3881 37.8152 84.5516 0
M  V30 36 C  18.6235 38.5765 85.4337 0
M  V30 37 C  20.7103 39.7201 86.0975 0
M  V30 38 C  19.3123 39.5178 86.2008 0
M  V30 39 C  20.9776 40.7607 87.0416 0
M  V30 40 N  19.8885 41.1570 87.6435 0
M  V30 41 N  18.8830 40.4127 87.1539 0
M  V30 42 H  23.8572 39.4350 93.9596 0
M  V30 43 H  23.6557 39.9567 92.2852 0
M  V30 44 H  22.3470 40.1583 93.4187 0
M  V30 45 H  22.1476 42.5370 94.3966 0
M  V30 46 H  22.9123 41.5502 95.6423 0
M  V30 47 H  23.5823 43.1325 95.2205 0
M  V30 48 H  25.2909 43.1825 93.6430 0
M  V30 49 H  27.1385 43.5523 92.4300 0
M  V30 50 H  28.0023 42.1118 92.8368 0
M  V30 51 H  29.0627 42.6478 90.8762 0
M  V30 52 H  27.8789 41.5573 90.2297 0
M  V30 53 H  30.1425 43.5657 87.8606 0
M  V30 54 H  29.5968 42.2130 88.8086 0
M  V30 55 H  27.9488 41.5698 87.0007 0
M  V30 56 H  29.5835 41.6823 86.3234 0
M  V30 57 H  26.3354 43.5762 86.5650 0
M  V30 58 H  26.9482 44.9264 85.5947 0
M  V30 59 H  26.9820 45.5402 88.0592 0
M  V30 60 H  28.5898 45.5198 87.3927 0
M  V30 61 H  27.5550 43.5060 83.7927 0
M  V30 62 H  28.8132 42.2866 83.9845 0
M  V30 63 H  24.9380 42.6737 84.7818 0
M  V30 64 H  25.6895 34.7708 84.7195 0
M  V30 65 H  24.2853 35.5569 85.3621 0
M  V30 66 H  23.4784 36.0573 82.9814 0
M  V30 67 H  23.7041 34.3561 83.2301 0
M  V30 68 H  25.3269 37.3007 81.7577 0
M  V30 69 H  26.6906 36.3581 81.2456 0
M  V30 70 H  27.3352 37.5834 83.3024 0
M  V30 71 H  27.3390 35.8954 83.6307 0
M  V30 72 H  21.3053 37.3633 83.7419 0
M  V30 73 H  18.8989 37.0735 83.9365 0
M  V30 74 H  17.5548 38.4396 85.5207 0
M  V30 75 H  21.9273 41.2236 87.2645 0
M  V30 76 H  17.9094 40.6058 87.4176 0
M  V30 77 H  29.1130 43.8975 85.5555 0
M  V30 END ATOM
M  V30 BEGIN BOND
M  V30 1 1 1 2
M  V30 2 1 1 42
M  V30 3 1 1 43
M  V30 4 1 1 44
M  V30 5 1 2 3
M  V30 6 2 2 4 CFG=2
M  V30 7 1 3 45
M  V30 8 1 3 46
M  V30 9 1 3 47
M  V30 10 1 4 5
M  V30 11 1 4 48
M  V30 12 2 5 6
M  V30 13 1 5 7
M  V30 14 1 7 8
M  V30 15 1 7 49
M  V30 16 1 7 50
M  V30 17 1 8 9
M  V30 18 1 8 51
M  V30 19 1 8 52
M  V30 20 2 9 10
M  V30 21 1 9 11
M  V30 22 1 11 12
M  V30 23 1 11 16
M  V30 24 1 12 13
M  V30 25 1 12 53
M  V30 26 1 12 54
M  V30 27 1 13 14
M  V30 28 1 13 55
M  V30 29 1 13 56
M  V30 30 1 14 15
M  V30 31 1 14 17
M  V30 32 1 14 77
M  V30 33 1 15 16
M  V30 34 1 15 57
M  V30 35 1 15 58
M  V30 36 1 16 59
M  V30 37 1 16 60
M  V30 38 1 17 18
M  V30 39 1 17 61
M  V30 40 1 17 62
M  V30 41 2 18 19
M  V30 42 1 18 20
M  V30 43 1 19 22
M  V30 44 1 19 63
M  V30 45 1 20 21
M  V30 46 2 21 22
M  V30 47 1 21 23
M  V30 48 1 22 32
M  V30 49 1 23 24
M  V30 50 2 23 30
M  V30 51 1 24 25
M  V30 52 1 24 29
M  V30 53 1 25 26
M  V30 54 1 25 64
M  V30 55 1 25 65
M  V30 56 1 26 27
M  V30 57 1 26 66
M  V30 58 1 26 67
M  V30 59 1 27 28
M  V30 60 1 28 29
M  V30 61 1 28 68
M  V30 62 1 28 69
M  V30 63 1 29 70
M  V30 64 1 29 71
M  V30 65 1 30 31
M  V30 66 2 31 32
M  V30 67 1 31 33
M  V30 68 2 33 34
M  V30 69 1 33 37
M  V30 70 1 34 35
M  V30 71 1 34 72
M  V30 72 2 35 36
M  V30 73 1 35 73
M  V30 74 1 36 38
M  V30 75 1 36 74
M  V30 76 2 37 38
M  V30 77 1 37 39
M  V30 78 1 38 41
M  V30 79 2 39 40
M  V30 80 1 39 75
M  V30 81 1 40 41
M  V30 82 1 41 76
M  V30 END BOND
M  V30 END CTAB
M  END
> <s_m_entry_id>
551

> <s_m_entry_name>
result.3575

> <s_m_Source_Path>
D:\OneDrive - zju.edu.cn\DOC\A-Finished\LCK_VS\Planet\LCK-8617

> <s_m_Source_File>
glide-dock_SP_top1262_2_pv.maegz

> <i_m_Source_File_Index>
551

> <PLANET_affinity>
9.944

> <i_lp_mmshare_version>
54117

> <i_f3d_flags>
0

> <s_epik_input>
W0NIM11DKFtDSDNdKT1bQ0hdQyg9TylbQ0gyXVtDSDJdQyg9TylOMVtDSDJdW0NIMl1OKFtDSDJdW0NIMl0xKVtDSDJdYyhzMilbY0hdYyhjMjMpbmMobmMzTjRbQ0gyXVtDSDJdT1tDSDJdW0NIMl00KS1jNVtjSF1bY0hdW2NIXWMoYzU2KVtuSF1uW2NIXTY=

> <s_epik_cmdline>
J2VwaWtfcHl0aG9uJywgJy1waCcsICc3LjAnLCAnLXRuJywgJzgnLCAnLW1hJywgJzUwMCcsICctaW1hZScsICc8aW5maWxlLm1hZT4nLCAnLW9tYWUnLCAnPG91dGZpbGUubWFlPic=

> <r_epik_Ionization_Penalty>
  0.0892

> <r_epik_Ionization_Penalty_Charging>
  0.0892

> <r_epik_Ionization_Penalty_Neutral>
  0.0000

> <r_epik_State_Penalty>
  0.0887

> <r_epik_Charging_Adjusted_Penalty>
0.177939

> <i_epik_Tot_Q>
1

> <i_epik_Tot_abs_Q>
1

> <s_lp_Force_Field>
S-OPLS

> <r_lp_Energy>
59.2433

> <b_lp_Chiralities_Consistent>
1

> <s_lp_Variant>
C/C(C)=C/C(CCC(N1CCN(CC2=CC3=NC(C4=CC=CC5=C4C=NN5)=NC(N6CCOCC6)=C3S2)CC1)=O)=O-1

> <s_i_glide_gridfile>
glide-grid_1

> <i_i_glide_lignum>
268

> <i_i_glide_rotatable_bonds>
9

> <r_i_docking_score>
-7.94901395758417

> <r_i_glide_ligand_efficiency>
-0.19387838920937

> <r_i_glide_ligand_efficiency_sa>
-0.668534803381832

> <r_i_glide_ligand_efficiency_ln>
-1.68640976420714

> <r_i_glide_gscore>
-8.03771395758417

> <r_i_glide_lipo>
-3.06582513773042

> <r_i_glide_hbond>
-0.473788584765385

> <r_i_glide_metal>
0

> <r_i_glide_rewards>
-1.31553706456785

> <r_i_glide_evdw>
-46.8630867004395

> <r_i_glide_ecoul>
-7.98723220825195

> <r_i_glide_erotb>
0.474216730785692

> <r_i_glide_esite>
-0.115540735046443

> <r_i_glide_emodel>
-81.0797088414735

> <r_i_glide_energy>
-54.8503189086914

> <r_i_glide_einternal>
13.6718521118164

> <i_i_glide_confnum>
145

> <i_i_glide_posenum>
190

> <r_i_glide_eff_state_penalty>
0.0887

> <r_lp_tautomer_probability>
0.980392

> <s_m_subgroup_title>
glide-dock_SP_top1262_2_pv

> <s_m_subgroupid>
glide-dock_SP_top1262_2_pv

> <b_m_subgroup_collapsed>
0

$$$$
FC1=CC(Br)=CC=C1NC2=NC=NC3=CC(OCC4CCN(CC4)C)=C(C=C23)OC
                    3D
 Schrodinger Suite 2021-3.
  0  0  0     0  0            999 V3000
M  V30 BEGIN CTAB
M  V30 COUNTS 55 58 0 0 0
M  V30 BEGIN ATOM
M  V30 1 F  21.8573 35.1420 87.2811 0
M  V30 2 C  21.0501 36.2109 87.0936 0
M  V30 3 C  19.7394 36.1576 87.5659 0
M  V30 4 C  18.8960 37.2539 87.4014 0
M  V30 5 Br 17.1035 37.1572 88.0214 0
M  V30 6 C  19.3634 38.4125 86.7865 0
M  V30 7 C  20.6753 38.4677 86.3114 0
M  V30 8 C  21.5212 37.3599 86.4435 0
M  V30 9 N  22.8375 37.4411 85.9653 0
M  V30 10 C  23.4161 36.7723 84.8685 0
M  V30 11 N  22.5927 35.9895 84.1257 0
M  V30 12 C  23.1420 35.3820 83.0522 0
M  V30 13 N  24.4278 35.4676 82.6376 0
M  V30 14 C  24.7968 36.9491 84.5429 0
M  V30 15 C  25.2540 36.2565 83.3810 0
M  V30 16 C  25.7201 37.7575 85.2652 0
M  V30 17 C  27.0499 37.8906 84.8329 0
M  V30 18 O  27.9996 38.6557 85.4875 0
M  V30 19 C  27.6640 39.3240 86.6989 0
M  V30 20 C  27.4717 37.2146 83.6796 0
M  V30 21 C  26.5907 36.4052 82.9614 0
M  V30 22 O  28.7567 37.4088 83.2313 0
M  V30 23 C  29.5737 36.2482 83.1038 0
M  V30 24 C  30.8218 36.5861 82.2587 0 CFG=2
M  V30 25 C  31.7773 35.3769 82.1427 0
M  V30 26 C  32.9814 35.6901 81.2302 0
M  V30 27 N  33.7320 36.9236 81.7953 0 CHG=1 CFG=1
M  V30 28 C  34.9630 37.2444 80.9171 0
M  V30 29 C  32.8046 38.1617 81.9126 0
M  V30 30 C  31.6185 37.7871 82.8233 0
M  V30 31 H  19.3787 35.2646 88.0543 0
M  V30 32 H  18.7088 39.2671 86.6757 0
M  V30 33 H  21.0302 39.3668 85.8298 0
M  V30 34 H  23.4314 38.1074 86.4342 0
M  V30 35 H  22.4839 34.7698 82.4593 0
M  V30 36 H  25.3765 38.2764 86.1456 0
M  V30 37 H  28.5464 39.8393 87.0797 0
M  V30 38 H  26.8876 40.0740 86.5406 0
M  V30 39 H  27.3377 38.6238 87.4701 0
M  V30 40 H  26.9183 35.9072 82.0591 0
M  V30 41 H  29.0474 35.4037 82.6541 0
M  V30 42 H  29.8676 35.9428 84.1073 0
M  V30 43 H  30.4963 36.8355 81.2470 0
M  V30 44 H  31.2324 34.5210 81.7398 0
M  V30 45 H  32.1105 35.0475 83.1306 0
M  V30 46 H  33.6865 34.8566 81.1931 0
M  V30 47 H  32.6809 35.9570 80.2156 0
M  V30 48 H  34.6183 37.4703 79.9056 0
M  V30 49 H  35.4761 38.0994 81.3640 0
M  V30 50 H  35.6105 36.3641 80.9278 0
M  V30 51 H  33.3980 38.9758 82.3360 0
M  V30 52 H  32.4851 38.4362 80.9036 0
M  V30 53 H  31.9555 37.5790 83.8421 0
M  V30 54 H  30.9584 38.6507 82.9343 0
M  V30 55 H  34.0461 36.6877 82.7292 0
M  V30 END ATOM
M  V30 BEGIN BOND
M  V30 1 1 1 2
M  V30 2 2 2 3
M  V30 3 1 2 8
M  V30 4 1 3 4
M  V30 5 1 3 31
M  V30 6 1 4 5
M  V30 7 2 4 6
M  V30 8 1 6 7
M  V30 9 1 6 32
M  V30 10 2 7 8
M  V30 11 1 7 33
M  V30 12 1 8 9
M  V30 13 1 9 10
M  V30 14 1 9 34
M  V30 15 2 10 11
M  V30 16 1 10 14
M  V30 17 1 11 12
M  V30 18 2 12 13
M  V30 19 1 12 35
M  V30 20 1 13 15
M  V30 21 2 14 15
M  V30 22 1 14 16
M  V30 23 1 15 21
M  V30 24 2 16 17
M  V30 25 1 16 36
M  V30 26 1 17 18
M  V30 27 1 17 20
M  V30 28 1 18 19
M  V30 29 1 19 37
M  V30 30 1 19 38
M  V30 31 1 19 39
M  V30 32 2 20 21
M  V30 33 1 20 22
M  V30 34 1 21 40
M  V30 35 1 22 23
M  V30 36 1 23 24
M  V30 37 1 23 41
M  V30 38 1 23 42
M  V30 39 1 24 25
M  V30 40 1 24 30
M  V30 41 1 24 43
M  V30 42 1 25 26
M  V30 43 1 25 44
M  V30 44 1 25 45
M  V30 45 1 26 27
M  V30 46 1 26 46
M  V30 47 1 26 47
M  V30 48 1 27 28
M  V30 49 1 27 29
M  V30 50 1 27 55
M  V30 51 1 28 48
M  V30 52 1 28 49
M  V30 53 1 28 50
M  V30 54 1 29 30
M  V30 55 1 29 51
M  V30 56 1 29 52
M  V30 57 1 30 53
M  V30 58 1 30 54
M  V30 END BOND
M  V30 END CTAB
M  END
> <s_m_entry_id>
552

> <s_m_entry_name>
result.137

> <s_m_Source_Path>
D:\OneDrive - zju.edu.cn\DOC\A-Finished\LCK_VS\Planet\LCK-8617

> <s_m_Source_File>
glide-dock_SP_top1262_2_pv.maegz

> <i_m_Source_File_Index>
552

> <PLANET_affinity>
7.405

> <i_lp_mmshare_version>
54117

> <i_f3d_flags>
0

> <s_epik_input>
RmMxW2NIXWMoQnIpW2NIXVtjSF1jMVtOSF1jMm5bY0hdbmMoYzIzKVtjSF1jKGMoW2NIXTMpT1tDSDNdKU9bQ0gyXVtDSF00W0NIMl1bQ0gyXU4oW0NIM10pW0NIMl1bQ0gyXTQ=

> <s_epik_cmdline>
J2VwaWtfcHl0aG9uJywgJy1waCcsICc3LjAnLCAnLXRuJywgJzgnLCAnLW1hJywgJzUwMCcsICctaW1hZScsICc8aW5maWxlLm1hZT4nLCAnLW9tYWUnLCAnPG91dGZpbGUubWFlPic=

> <r_epik_Ionization_Penalty>
  0.0038

> <r_epik_Ionization_Penalty_Charging>
  0.0015

> <r_epik_Ionization_Penalty_Neutral>
  0.0022

> <r_epik_State_Penalty>
  0.0000

> <r_epik_Charging_Adjusted_Penalty>
0.00154336

> <i_epik_Tot_Q>
1

> <i_epik_Tot_abs_Q>
1

> <s_lp_Force_Field>
S-OPLS

> <r_lp_Energy>
55.9891

> <b_lp_Chiralities_Consistent>
1

> <s_lp_Variant>
FC1=CC(Br)=CC=C1NC2=NC=NC3=CC(OCC4CCN(CC4)C)=C(C=C23)OC-1

> <s_i_glide_gridfile>
glide-grid_1

> <i_i_glide_lignum>
2089

> <i_i_glide_rotatable_bonds>
6

> <r_i_docking_score>
-7.94873441023535

> <r_i_glide_ligand_efficiency>
-0.264957813674512

> <r_i_glide_ligand_efficiency_sa>
-0.823285530422523

> <r_i_glide_ligand_efficiency_ln>
-1.80603906640366

> <r_i_glide_gscore>
-7.94873441023535

> <r_i_glide_lipo>
-3.44430956124731

> <r_i_glide_hbond>
0

> <r_i_glide_metal>
0

> <r_i_glide_rewards>
-1.64393228994639

> <r_i_glide_evdw>
-43.2104454040527

> <r_i_glide_ecoul>
-7.64095878601074

> <r_i_glide_erotb>
0.446173529062593

> <r_i_glide_esite>
0

> <r_i_glide_emodel>
-74.5230752010502

> <r_i_glide_energy>
-50.8514041900635

> <r_i_glide_einternal>
9.28565979003906

> <i_i_glide_confnum>
81

> <i_i_glide_posenum>
54

> <r_i_glide_eff_state_penalty>
0

> <r_lp_tautomer_probability>
1

> <s_m_subgroup_title>
glide-dock_SP_top1262_2_pv

> <s_m_subgroupid>
glide-dock_SP_top1262_2_pv

> <b_m_subgroup_collapsed>
0

$$$$
CN1C=C(C2=NC(NC3=CC(NC(C=C)=O)=C(N(CCNC)C)C=C3OC)=NC=C2)C4=CC=CC=C41.O=S(O)(C...
                    3D
 Schrodinger Suite 2021-3.
  0  0  0     0  0            999 V3000
M  V30 BEGIN CTAB
M  V30 COUNTS 68 71 0 0 0
M  V30 BEGIN ATOM
M  V30 1 C  26.5631 38.3571 86.8447 0
M  V30 2 C  27.0540 39.1570 87.8745 0
M  V30 3 C  26.2058 39.9711 88.6171 0
M  V30 4 C  24.8358 40.0248 88.3663 0
M  V30 5 C  24.3387 39.2230 87.3273 0
M  V30 6 C  25.1888 38.3801 86.5408 0
M  V30 7 N  23.0484 39.0562 86.8561 0
M  V30 8 C  21.8594 39.7248 87.3633 0
M  V30 9 C  23.0684 38.1639 85.8127 0
M  V30 10 C  24.3553 37.7256 85.5552 0
M  V30 11 C  24.7671 36.7865 84.4692 0
M  V30 12 N  26.0866 36.7919 84.1629 0
M  V30 13 C  26.5178 35.9918 83.1565 0
M  V30 14 N  25.7124 35.1572 82.4439 0
M  V30 15 C  24.3904 35.1566 82.7720 0
M  V30 16 C  23.8705 35.9563 83.7909 0
M  V30 17 N  27.8854 35.9768 82.8321 0
M  V30 18 C  28.9885 36.7646 83.2425 0
M  V30 19 C  28.8301 37.9960 83.8906 0
M  V30 20 C  29.9270 38.7453 84.3361 0
M  V30 21 N  29.6724 39.9644 84.9851 0
M  V30 22 C  28.9803 40.9917 84.4448 0
M  V30 23 O  28.4828 40.9683 83.3137 0
M  V30 24 C  28.8690 42.1171 85.3420 0
M  V30 25 C  28.2618 43.2677 84.9925 0
M  V30 26 C  31.2369 38.2471 84.1607 0
M  V30 27 C  31.3856 37.0667 83.4315 0
M  V30 28 C  30.2915 36.3228 82.9611 0
M  V30 29 O  30.4499 35.1567 82.2341 0
M  V30 30 C  31.7668 34.7483 81.8640 0
M  V30 31 N  32.4309 38.8598 84.6297 0
M  V30 32 C  32.5421 40.3154 84.5535 0
M  V30 33 C  33.0733 38.2401 85.7996 0
M  V30 34 C  33.6423 36.8175 85.5638 0
M  V30 35 N  34.5500 36.3565 86.7200 0 CHG=1
M  V30 36 C  33.8186 36.0671 88.0414 0
M  V30 37 H  27.2453 37.7300 86.2913 0
M  V30 38 H  28.1103 39.1480 88.0971 0
M  V30 39 H  26.6224 40.5797 89.4069 0
M  V30 40 H  24.1891 40.6595 88.9550 0
M  V30 41 H  21.9682 40.8025 87.2357 0
M  V30 42 H  20.9712 39.3931 86.8253 0
M  V30 43 H  21.7430 39.4969 88.4211 0
M  V30 44 H  22.1456 37.9243 85.3043 0
M  V30 45 H  23.7405 34.5004 82.2094 0
M  V30 46 H  22.8199 35.9335 84.0319 0
M  V30 47 H  28.1255 35.2668 82.1504 0
M  V30 48 H  27.8466 38.4112 84.0422 0
M  V30 49 H  30.1818 40.1394 85.8380 0
M  V30 50 H  29.2991 42.0137 86.3287 0
M  V30 51 H  28.2013 44.0912 85.6878 0
M  V30 52 H  27.8189 43.4166 84.0179 0
M  V30 53 H  32.3883 36.7338 83.2231 0
M  V30 54 H  31.7163 33.8535 81.2448 0
M  V30 55 H  32.2746 35.5110 81.2695 0
M  V30 56 H  32.3737 34.5037 82.7376 0
M  V30 57 H  32.0551 40.7040 83.6560 0
M  V30 58 H  32.1087 40.8035 85.4260 0
M  V30 59 H  33.5907 40.6048 84.4896 0
M  V30 60 H  32.3599 38.2268 86.6255 0
M  V30 61 H  33.8909 38.8866 86.1262 0
M  V30 62 H  34.2951 36.7850 84.6885 0
M  V30 63 H  32.8838 36.0397 85.4605 0
M  V30 64 H  35.2856 37.0323 86.8675 0
M  V30 65 H  34.5800 35.7840 88.7686 0
M  V30 66 H  33.1470 35.2268 87.8535 0
M  V30 67 H  33.2857 36.9654 88.3552 0
M  V30 68 H  34.9892 35.4789 86.4462 0
M  V30 END ATOM
M  V30 BEGIN BOND
M  V30 1 2 1 2
M  V30 2 1 1 6
M  V30 3 1 1 37
M  V30 4 1 2 3
M  V30 5 1 2 38
M  V30 6 2 3 4
M  V30 7 1 3 39
M  V30 8 1 4 5
M  V30 9 1 4 40
M  V30 10 2 5 6
M  V30 11 1 5 7
M  V30 12 1 6 10
M  V30 13 1 7 8
M  V30 14 1 7 9
M  V30 15 1 8 41
M  V30 16 1 8 42
M  V30 17 1 8 43
M  V30 18 2 9 10
M  V30 19 1 9 44
M  V30 20 1 10 11
M  V30 21 2 11 12
M  V30 22 1 11 16
M  V30 23 1 12 13
M  V30 24 2 13 14
M  V30 25 1 13 17
M  V30 26 1 14 15
M  V30 27 2 15 16
M  V30 28 1 15 45
M  V30 29 1 16 46
M  V30 30 1 17 18
M  V30 31 1 17 47
M  V30 32 2 18 19
M  V30 33 1 18 28
M  V30 34 1 19 20
M  V30 35 1 19 48
M  V30 36 1 20 21
M  V30 37 2 20 26
M  V30 38 1 21 22
M  V30 39 1 21 49
M  V30 40 2 22 23
M  V30 41 1 22 24
M  V30 42 2 24 25
M  V30 43 1 24 50
M  V30 44 1 25 51
M  V30 45 1 25 52
M  V30 46 1 26 27
M  V30 47 1 26 31
M  V30 48 2 27 28
M  V30 49 1 27 53
M  V30 50 1 28 29
M  V30 51 1 29 30
M  V30 52 1 30 54
M  V30 53 1 30 55
M  V30 54 1 30 56
M  V30 55 1 31 32
M  V30 56 1 31 33
M  V30 57 1 32 57
M  V30 58 1 32 58
M  V30 59 1 32 59
M  V30 60 1 33 34
M  V30 61 1 33 60
M  V30 62 1 33 61
M  V30 63 1 34 35
M  V30 64 1 34 62
M  V30 65 1 34 63
M  V30 66 1 35 36
M  V30 67 1 35 64
M  V30 68 1 35 68
M  V30 69 1 36 65
M  V30 70 1 36 66
M  V30 71 1 36 67
M  V30 END BOND
M  V30 END CTAB
M  END
> <s_m_entry_id>
553

> <s_m_entry_name>
result.4469

> <s_m_Source_Path>
D:\OneDrive - zju.edu.cn\DOC\A-Finished\LCK_VS\Planet\LCK-8617

> <s_m_Source_File>
glide-dock_SP_top1262_2_pv.maegz

> <i_m_Source_File_Index>
553

> <PLANET_affinity>
9.079

> <i_lp_mmshare_version>
54117

> <i_f3d_flags>
0

> <s_epik_input>
W2NIXTFbY0hdW2NIXVtjSF1jKGMxMiljKFtjSF1uMltDSDNdKS1jM25jKG5bY0hdW2NIXTMpW05IXWM0W2NIXWMoW05IXUMoPU8pW0NIXT1bQ0gyXSljKFtjSF1jNE9bQ0gzXSlOKFtDSDNdKVtDSDJdW0NIMl1bTkhdW0NIM10=

> <s_epik_cmdline>
J2VwaWtfcHl0aG9uJywgJy1waCcsICc3LjAnLCAnLXRuJywgJzgnLCAnLW1hJywgJzUwMCcsICctaW1hZScsICc8aW5maWxlLm1hZT4nLCAnLW9tYWUnLCAnPG91dGZpbGUubWFlPic=

> <r_epik_Ionization_Penalty>
  0.0112

> <r_epik_Ionization_Penalty_Charging>
  0.0016

> <r_epik_Ionization_Penalty_Neutral>
  0.0096

> <r_epik_State_Penalty>
  0.0044

> <r_epik_Charging_Adjusted_Penalty>
0.00605018

> <i_epik_Tot_Q>
1

> <i_epik_Tot_abs_Q>
1

> <s_lp_Force_Field>
S-OPLS

> <r_lp_Energy>
79.9864

> <b_lp_Chiralities_Consistent>
1

> <s_lp_Variant>
CN1C=C(C2=NC(NC3=CC(NC(C=C)=O)=C(N(CCNC)C)C=C3OC)=NC=C2)C4=CC=CC=C41.O=S(O)(C...-1

> <s_i_glide_gridfile>
glide-grid_1

> <i_i_glide_lignum>
487

> <i_i_glide_rotatable_bonds>
11

> <r_i_docking_score>
-7.94800153300818

> <r_i_glide_ligand_efficiency>
-0.220777820361338

> <r_i_glide_ligand_efficiency_sa>
-0.72899230013188

> <r_i_glide_ligand_efficiency_ln>
-1.73403920431609

> <r_i_glide_gscore>
-7.95240153300818

> <r_i_glide_lipo>
-2.60985236741397

> <r_i_glide_hbond>
-0.675274959085425

> <r_i_glide_metal>
0

> <r_i_glide_rewards>
-1.43357281142072

> <r_i_glide_evdw>
-44.7594909667969

> <r_i_glide_ecoul>
-11.1187334060669

> <r_i_glide_erotb>
0.772525661911766

> <r_i_glide_esite>
-0.100442497749961

> <r_i_glide_emodel>
-83.0185772245128

> <r_i_glide_energy>
-55.8782243728638

> <r_i_glide_einternal>
7.70662832260132

> <i_i_glide_confnum>
70

> <i_i_glide_posenum>
234

> <r_i_glide_eff_state_penalty>
0.0044

> <r_lp_tautomer_probability>
1

> <s_m_subgroup_title>
glide-dock_SP_top1262_2_pv

> <s_m_subgroupid>
glide-dock_SP_top1262_2_pv

> <b_m_subgroup_collapsed>
0

$$$$
O=C(NC1=NC2=NC(NCCCCN(CC)CC)=NC=C2C=C1C3=CC(OC)=CC(OC)=C3)NC(C)(C)C
                    3D
 Schrodinger Suite 2021-3.
  0  0  0     0  0            999 V3000
M  V30 BEGIN CTAB
M  V30 COUNTS 80 82 0 0 0
M  V30 BEGIN ATOM
M  V30 1 C  16.9190 37.1942 87.3938 0
M  V30 2 O  18.2584 36.7716 87.1432 0
M  V30 3 C  19.2462 37.7256 87.0060 0
M  V30 4 C  20.4911 37.3035 86.5331 0
M  V30 5 C  19.0670 39.0796 87.3169 0
M  V30 6 C  20.0937 39.9984 87.1427 0
M  V30 7 O  19.8431 41.2847 87.5687 0
M  V30 8 C  20.8834 42.2552 87.5195 0
M  V30 9 C  21.2984 39.5657 86.5771 0
M  V30 10 C  21.5348 38.2106 86.2985 0
M  V30 11 C  22.8561 37.7529 85.7429 0
M  V30 12 C  24.1061 38.2330 86.2066 0
M  V30 13 N  25.2867 37.8740 85.6369 0
M  V30 14 N  24.1326 39.1560 87.2740 0
M  V30 15 C  25.1662 39.5555 88.0409 0
M  V30 16 O  26.2829 39.0363 88.0580 0
M  V30 17 N  24.8174 40.6213 88.7856 0
M  V30 18 C  25.6478 41.4073 89.7163 0
M  V30 19 C  24.8042 42.6273 90.1431 0
M  V30 20 C  26.9444 41.9258 89.0453 0
M  V30 21 C  25.9994 40.5870 90.9762 0
M  V30 22 C  22.8679 36.8173 84.6941 0
M  V30 23 C  24.0922 36.4366 84.0944 0
M  V30 24 C  25.2855 37.0157 84.5944 0
M  V30 25 C  24.2568 35.5561 83.0007 0
M  V30 26 N  25.4647 35.2820 82.4454 0
M  V30 27 C  26.5418 35.8933 83.0026 0
M  V30 28 N  26.5000 36.7536 84.0523 0
M  V30 29 N  27.7937 35.5564 82.4667 0
M  V30 30 C  29.0117 36.2454 82.9066 0
M  V30 31 C  30.3005 35.4514 82.6634 0
M  V30 32 C  31.5696 36.2309 83.0704 0
M  V30 33 C  32.8043 35.3472 83.3479 0
M  V30 34 N  33.1967 34.4320 82.1535 0 CHG=1
M  V30 35 C  33.5894 35.2664 80.9020 0
M  V30 36 C  33.9822 34.3923 79.6951 0
M  V30 37 C  34.2918 33.3976 82.5510 0
M  V30 38 C  33.8167 32.4231 83.6433 0
M  V30 39 H  16.2398 36.3564 87.2392 0
M  V30 40 H  16.8013 37.5471 88.4200 0
M  V30 41 H  16.6007 37.9842 86.7113 0
M  V30 42 H  20.6339 36.2532 86.3286 0
M  V30 43 H  18.1289 39.4444 87.7133 0
M  V30 44 H  20.5429 43.1565 88.0312 0
M  V30 45 H  21.1298 42.5262 86.4917 0
M  V30 46 H  21.7867 41.9183 88.0286 0
M  V30 47 H  22.0625 40.2926 86.3492 0
M  V30 48 H  23.2262 39.5407 87.4915 0
M  V30 49 H  23.8745 40.9585 88.6927 0
M  V30 50 H  23.8726 42.3272 90.6263 0
M  V30 51 H  25.3434 43.2594 90.8488 0
M  V30 52 H  24.5374 43.2517 89.2882 0
M  V30 53 H  27.6170 41.1135 88.7720 0
M  V30 54 H  26.7286 42.4895 88.1365 0
M  V30 55 H  27.5014 42.5836 89.7136 0
M  V30 56 H  26.4827 39.6406 90.7257 0
M  V30 57 H  26.6762 41.1338 91.6309 0
M  V30 58 H  25.1076 40.3576 91.5618 0
M  V30 59 H  21.9437 36.4160 84.2979 0
M  V30 60 H  23.3939 35.0771 82.5583 0
M  V30 61 H  27.7796 35.1448 81.5399 0
M  V30 62 H  29.0574 37.2304 82.4425 0
M  V30 63 H  28.9633 36.4698 83.9752 0
M  V30 64 H  30.2295 34.5327 83.2430 0
M  V30 65 H  30.3643 35.1435 81.6221 0
M  V30 66 H  31.7961 37.0062 82.3382 0
M  V30 67 H  31.3677 36.7773 83.9933 0
M  V30 68 H  33.6936 35.9323 83.5902 0
M  V30 69 H  32.5792 34.6939 84.1901 0
M  V30 70 H  32.7083 35.8563 80.6508 0
M  V30 71 H  34.3984 35.9349 81.2079 0
M  V30 72 H  33.9905 34.9877 78.7805 0
M  V30 73 H  34.9791 33.9655 79.8024 0
M  V30 74 H  33.2824 33.5688 79.5367 0
M  V30 75 H  34.5218 32.8203 81.6559 0
M  V30 76 H  35.1723 33.9699 82.8511 0
M  V30 77 H  34.5591 31.6408 83.8031 0
M  V30 78 H  33.6836 32.9022 84.6108 0
M  V30 79 H  32.8820 31.9323 83.3790 0
M  V30 80 H  32.3696 33.9091 81.8999 0
M  V30 END ATOM
M  V30 BEGIN BOND
M  V30 1 1 1 2
M  V30 2 1 1 39
M  V30 3 1 1 40
M  V30 4 1 1 41
M  V30 5 1 2 3
M  V30 6 2 3 4
M  V30 7 1 3 5
M  V30 8 1 4 10
M  V30 9 1 4 42
M  V30 10 2 5 6
M  V30 11 1 5 43
M  V30 12 1 6 7
M  V30 13 1 6 9
M  V30 14 1 7 8
M  V30 15 1 8 44
M  V30 16 1 8 45
M  V30 17 1 8 46
M  V30 18 2 9 10
M  V30 19 1 9 47
M  V30 20 1 10 11
M  V30 21 2 11 12
M  V30 22 1 11 22
M  V30 23 1 12 13
M  V30 24 1 12 14
M  V30 25 2 13 24
M  V30 26 1 14 15
M  V30 27 1 14 48
M  V30 28 2 15 16
M  V30 29 1 15 17
M  V30 30 1 17 18
M  V30 31 1 17 49
M  V30 32 1 18 19
M  V30 33 1 18 20
M  V30 34 1 18 21
M  V30 35 1 19 50
M  V30 36 1 19 51
M  V30 37 1 19 52
M  V30 38 1 20 53
M  V30 39 1 20 54
M  V30 40 1 20 55
M  V30 41 1 21 56
M  V30 42 1 21 57
M  V30 43 1 21 58
M  V30 44 2 22 23
M  V30 45 1 22 59
M  V30 46 1 23 24
M  V30 47 1 23 25
M  V30 48 1 24 28
M  V30 49 2 25 26
M  V30 50 1 25 60
M  V30 51 1 26 27
M  V30 52 2 27 28
M  V30 53 1 27 29
M  V30 54 1 29 30
M  V30 55 1 29 61
M  V30 56 1 30 31
M  V30 57 1 30 62
M  V30 58 1 30 63
M  V30 59 1 31 32
M  V30 60 1 31 64
M  V30 61 1 31 65
M  V30 62 1 32 33
M  V30 63 1 32 66
M  V30 64 1 32 67
M  V30 65 1 33 34
M  V30 66 1 33 68
M  V30 67 1 33 69
M  V30 68 1 34 35
M  V30 69 1 34 37
M  V30 70 1 34 80
M  V30 71 1 35 36
M  V30 72 1 35 70
M  V30 73 1 35 71
M  V30 74 1 36 72
M  V30 75 1 36 73
M  V30 76 1 36 74
M  V30 77 1 37 38
M  V30 78 1 37 75
M  V30 79 1 37 76
M  V30 80 1 38 77
M  V30 81 1 38 78
M  V30 82 1 38 79
M  V30 END BOND
M  V30 END CTAB
M  END
> <s_m_entry_id>
556

> <s_m_entry_name>
result.4039

> <s_m_Source_Path>
D:\OneDrive - zju.edu.cn\DOC\A-Finished\LCK_VS\Planet\LCK-8617

> <s_m_Source_File>
glide-dock_SP_top1262_2_pv.maegz

> <i_m_Source_File_Index>
556

> <PLANET_affinity>
8.318

> <i_lp_mmshare_version>
54117

> <i_f3d_flags>
0

> <s_epik_input>
W0NIM11PYzFbY0hdYyhbY0hdYyhbY0hdMSlPW0NIM10pLWMoW2NIXTIpYyhbTkhdQyg9TylbTkhdQyhbQ0gzXSkoW0NIM10pW0NIM10pbmMoYzIzKW5jKG5bY0hdMylbTkhdW0NIMl1bQ0gyXVtDSDJdW0NIMl1OKFtDSDJdW0NIM10pW0NIMl1bQ0gzXQ==

> <s_epik_cmdline>
J2VwaWtfcHl0aG9uJywgJy1waCcsICc3LjAnLCAnLXRuJywgJzgnLCAnLW1hJywgJzUwMCcsICctaW1hZScsICc8aW5maWxlLm1hZT4nLCAnLW9tYWUnLCAnPG91dGZpbGUubWFlPic=

> <r_epik_Ionization_Penalty>
  0.0375

> <r_epik_Ionization_Penalty_Charging>
  0.0013

> <r_epik_Ionization_Penalty_Neutral>
  0.0362

> <r_epik_State_Penalty>
  0.0425

> <r_epik_Charging_Adjusted_Penalty>
0.0437658

> <i_epik_Tot_Q>
1

> <i_epik_Tot_abs_Q>
1

> <s_lp_Force_Field>
S-OPLS

> <r_lp_Energy>
54.9326

> <b_lp_Chiralities_Consistent>
1

> <s_lp_Variant>
O=C(NC1=NC2=NC(NCCCCN(CC)CC)=NC=C2C=C1C3=CC(OC)=CC(OC)=C3)NC(C)(C)C-1

> <s_i_glide_gridfile>
glide-grid_1

> <i_i_glide_lignum>
950

> <i_i_glide_rotatable_bonds>
15

> <r_i_docking_score>
-7.94616813528902

> <r_i_glide_ligand_efficiency>
-0.209109687770764

> <r_i_glide_ligand_efficiency_sa>
-0.703021626756284

> <r_i_glide_ligand_efficiency_ln>
-1.71342760255215

> <r_i_glide_gscore>
-7.98866813528902

> <r_i_glide_lipo>
-2.21839147349888

> <r_i_glide_hbond>
-0.548053771731069

> <r_i_glide_metal>
0

> <r_i_glide_rewards>
-1.79744273651541

> <r_i_glide_evdw>
-49.6203918457031

> <r_i_glide_ecoul>
-9.53392124176025

> <r_i_glide_erotb>
0.523256684017527

> <r_i_glide_esite>
-0.0369290590119966

> <r_i_glide_emodel>
-83.4612441491388

> <r_i_glide_energy>
-59.1543130874634

> <r_i_glide_einternal>
16.4519844055176

> <i_i_glide_confnum>
268

> <i_i_glide_posenum>
181

> <r_i_glide_eff_state_penalty>
0.0425

> <r_lp_tautomer_probability>
1

> <s_m_subgroup_title>
glide-dock_SP_top1262_2_pv

> <s_m_subgroupid>
glide-dock_SP_top1262_2_pv

> <b_m_subgroup_collapsed>
0

$$$$
C=CC(N1C[C@H](N2N=C(C3=CC=C(OC4=CC=CC=C4)C=C3)C5=C(N)N=CN=C52)CCC1)=O
                    3D
 Schrodinger Suite 2021-3.
  0  0  0     0  0            999 V3000
M  V30 BEGIN CTAB
M  V30 COUNTS 57 61 0 0 0
M  V30 BEGIN ATOM
M  V30 1 C  21.6837 42.6568 87.2591 0
M  V30 2 C  21.4860 41.5482 86.5203 0
M  V30 3 C  20.7598 40.3934 87.0156 0
M  V30 4 O  20.0828 40.4640 88.0433 0
M  V30 5 N  20.8198 39.2506 86.2757 0
M  V30 6 C  22.0093 38.8528 85.4963 0
M  V30 7 C  22.8245 37.8794 86.3923 0 CFG=1
M  V30 8 C  21.9673 36.6555 86.8333 0
M  V30 9 C  20.6344 37.1102 87.4470 0
M  V30 10 C  19.8949 38.1337 86.5579 0
M  V30 11 N  24.0006 37.4734 85.6103 0
M  V30 12 C  24.0723 36.6786 84.4827 0
M  V30 13 C  25.3823 36.8397 83.9726 0
M  V30 14 N  23.0975 35.9558 83.9173 0
M  V30 15 C  23.4846 35.3349 82.7794 0
M  V30 16 N  24.6875 35.4082 82.1650 0
M  V30 17 C  25.6268 36.1847 82.7506 0
M  V30 18 N  26.8041 36.3565 82.0438 0
M  V30 19 N  25.1869 38.0860 85.8348 0
M  V30 20 C  26.0498 37.6952 84.9187 0
M  V30 21 C  27.4859 38.1408 84.9599 0
M  V30 22 C  27.8481 39.3762 85.5118 0
M  V30 23 C  29.1900 39.7535 85.5849 0
M  V30 24 C  30.1916 38.9050 85.1120 0
M  V30 25 C  29.8270 37.6946 84.5097 0
M  V30 26 C  28.4919 37.3190 84.4436 0
M  V30 27 O  31.5064 39.3086 85.2553 0
M  V30 28 C  32.5024 38.3651 85.3604 0
M  V30 29 C  33.0957 37.8458 84.2072 0
M  V30 30 C  34.0488 36.8371 84.3118 0
M  V30 31 C  34.4157 36.3621 85.5700 0
M  V30 32 C  33.8561 36.9040 86.7243 0
M  V30 33 C  32.9058 37.9155 86.6205 0
M  V30 34 H  21.3212 42.7498 88.2746 0
M  V30 35 H  22.2102 43.5059 86.8463 0
M  V30 36 H  21.8558 41.5229 85.5069 0
M  V30 37 H  21.6507 38.3467 84.5979 0
M  V30 38 H  22.5927 39.6910 85.1199 0
M  V30 39 H  23.2076 38.3889 87.2804 0
M  V30 40 H  22.4830 36.0999 87.6134 0
M  V30 41 H  21.7988 35.9324 86.0389 0
M  V30 42 H  20.8259 37.5419 88.4271 0
M  V30 43 H  19.9911 36.2472 87.6256 0
M  V30 44 H  18.9345 38.4716 86.9511 0
M  V30 45 H  19.6445 37.6807 85.5988 0
M  V30 46 H  22.7266 34.7572 82.2809 0
M  V30 47 H  27.5156 36.9626 82.4208 0
M  V30 48 H  26.9403 35.8804 81.1511 0
M  V30 49 H  27.0910 40.0403 85.9032 0
M  V30 50 H  29.4603 40.6978 86.0332 0
M  V30 51 H  30.5725 37.0156 84.1253 0
M  V30 52 H  28.2645 36.3475 84.0408 0
M  V30 53 H  32.7938 38.2117 83.2368 0
M  V30 54 H  34.4942 36.4123 83.4234 0
M  V30 55 H  35.1402 35.5627 85.6555 0
M  V30 56 H  34.1545 36.5360 87.6944 0
M  V30 57 H  32.4826 38.3423 87.5134 0
M  V30 END ATOM
M  V30 BEGIN BOND
M  V30 1 2 1 2
M  V30 2 1 1 34
M  V30 3 1 1 35
M  V30 4 1 2 3
M  V30 5 1 2 36
M  V30 6 2 3 4
M  V30 7 1 3 5
M  V30 8 1 5 6
M  V30 9 1 5 10
M  V30 10 1 6 7
M  V30 11 1 6 37
M  V30 12 1 6 38
M  V30 13 1 7 8
M  V30 14 1 7 11
M  V30 15 1 7 39
M  V30 16 1 8 9
M  V30 17 1 8 40
M  V30 18 1 8 41
M  V30 19 1 9 10
M  V30 20 1 9 42
M  V30 21 1 9 43
M  V30 22 1 10 44
M  V30 23 1 10 45
M  V30 24 1 11 12
M  V30 25 1 11 19
M  V30 26 1 12 13
M  V30 27 2 12 14
M  V30 28 1 13 20
M  V30 29 2 13 17
M  V30 30 1 14 15
M  V30 31 2 15 16
M  V30 32 1 15 46
M  V30 33 1 16 17
M  V30 34 1 17 18
M  V30 35 1 18 47
M  V30 36 1 18 48
M  V30 37 2 19 20
M  V30 38 1 20 21
M  V30 39 2 21 22
M  V30 40 1 21 26
M  V30 41 1 22 23
M  V30 42 1 22 49
M  V30 43 2 23 24
M  V30 44 1 23 50
M  V30 45 1 24 25
M  V30 46 1 24 27
M  V30 47 2 25 26
M  V30 48 1 25 51
M  V30 49 1 26 52
M  V30 50 1 27 28
M  V30 51 2 28 29
M  V30 52 1 28 33
M  V30 53 1 29 30
M  V30 54 1 29 53
M  V30 55 2 30 31
M  V30 56 1 30 54
M  V30 57 1 31 32
M  V30 58 1 31 55
M  V30 59 2 32 33
M  V30 60 1 32 56
M  V30 61 1 33 57
M  V30 END BOND
M  V30 END CTAB
M  END
> <s_m_entry_id>
558

> <s_m_entry_name>
result.3709

> <s_m_Source_Path>
D:\OneDrive - zju.edu.cn\DOC\A-Finished\LCK_VS\Planet\LCK-8617

> <s_m_Source_File>
glide-dock_SP_top1262_2_pv.maegz

> <i_m_Source_File_Index>
558

> <PLANET_affinity>
7.161

> <i_lp_mmshare_version>
54117

> <i_f3d_flags>
0

> <s_epik_input>
W0NIMl09W0NIXUMoPU8pTjFbQ0gyXVtDQEBIXShbQ0gyXVtDSDJdW0NIMl0xKW4ybmMoYyhjMjMpYyhbTkgyXSluW2NIXW4zKS1jNFtjSF1bY0hdYyhbY0hdW2NIXTQpT2M1W2NIXVtjSF1bY0hdW2NIXVtjSF01

> <s_epik_cmdline>
J2VwaWtfcHl0aG9uJywgJy1waCcsICc3LjAnLCAnLXRuJywgJzgnLCAnLW1hJywgJzUwMCcsICctaW1hZScsICc8aW5maWxlLm1hZT4nLCAnLW9tYWUnLCAnPG91dGZpbGUubWFlPic=

> <r_epik_Ionization_Penalty>
  0.0006

> <r_epik_Ionization_Penalty_Charging>
  0.0000

> <r_epik_Ionization_Penalty_Neutral>
  0.0006

> <r_epik_State_Penalty>
  0.0000

> <r_epik_Charging_Adjusted_Penalty>
0

> <i_epik_Tot_Q>
0

> <i_epik_Tot_abs_Q>
0

> <s_lp_Force_Field>
S-OPLS

> <r_lp_Energy>
36.4506

> <b_lp_Chiralities_Consistent>
1

> <s_lp_Variant>
C=CC(N1C[C@H](N2N=C(C3=CC=C(OC4=CC=CC=C4)C=C3)C5=C(N)N=CN=C52)CCC1)=O-1

> <s_i_glide_gridfile>
glide-grid_1

> <i_i_glide_lignum>
2444

> <i_i_glide_rotatable_bonds>
6

> <r_i_docking_score>
-7.94063199122247

> <r_i_glide_ligand_efficiency>
-0.240625211855226

> <r_i_glide_ligand_efficiency_sa>
-0.771813626788606

> <r_i_glide_ligand_efficiency_ln>
-1.76595544045582

> <r_i_glide_gscore>
-7.94063199122247

> <r_i_glide_lipo>
-2.29319149398555

> <r_i_glide_hbond>
-0.691294065887544

> <r_i_glide_metal>
0

> <r_i_glide_rewards>
-2.02461870344515

> <r_i_glide_evdw>
-35.9777336120605

> <r_i_glide_ecoul>
-10.2923698425293

> <r_i_glide_erotb>
0.432194289791804

> <r_i_glide_esite>
-0.0209798607136056

> <r_i_glide_emodel>
-65.4201628185888

> <r_i_glide_energy>
-46.2701034545898

> <r_i_glide_einternal>
7.82093381881714

> <i_i_glide_confnum>
179

> <i_i_glide_posenum>
260

> <r_i_glide_eff_state_penalty>
0

> <r_lp_tautomer_probability>
1

> <s_m_subgroup_title>
glide-dock_SP_top1262_2_pv

> <s_m_subgroupid>
glide-dock_SP_top1262_2_pv

> <b_m_subgroup_collapsed>
0

$$$$
O=C(CCN1CCCCC1)NC2=CC=C(NC(/C3=C\C4=CNC5=C4C=C(OC)C=C5)=O)C3=C2
                    3D
 Schrodinger Suite 2021-3.
  0  0  0     0  0            999 V3000
M  V30 BEGIN CTAB
M  V30 COUNTS 62 66 0 0 0
M  V30 BEGIN ATOM
M  V30 1 C  22.1527 44.5571 89.0402 0
M  V30 2 C  21.7180 46.0257 89.2001 0
M  V30 3 C  22.5602 46.9820 88.3359 0
M  V30 4 C  22.5529 46.5532 86.8582 0
M  V30 5 C  23.0009 45.0907 86.6807 0
M  V30 6 N  22.0831 44.1859 87.5400 0 CHG=1
M  V30 7 C  22.3841 42.6944 87.2607 0
M  V30 8 C  21.2789 41.7898 87.8665 0
M  V30 9 C  21.2154 40.3520 87.3206 0
M  V30 10 O  20.2540 39.6565 87.6462 0
M  V30 11 N  22.2339 39.9240 86.5432 0
M  V30 12 C  22.3477 38.7303 85.8092 0
M  V30 13 C  21.2455 37.9666 85.3806 0
M  V30 14 C  21.4363 36.8570 84.5523 0
M  V30 15 C  23.6384 38.3569 85.4146 0
M  V30 16 C  23.8191 37.2480 84.5859 0
M  V30 17 C  22.7318 36.5180 84.1682 0
M  V30 18 C  25.0052 36.6774 83.9485 0
M  V30 19 C  24.5118 35.5568 83.1533 0
M  V30 20 O  25.1158 34.7595 82.4436 0
M  V30 21 N  23.1778 35.5323 83.3242 0
M  V30 22 C  26.2853 37.1172 84.0548 0
M  V30 23 C  27.5780 36.7244 83.4858 0
M  V30 24 C  27.9584 35.5563 82.8424 0
M  V30 25 N  29.2842 35.5764 82.5047 0
M  V30 26 C  28.7953 37.5056 83.5454 0
M  V30 27 C  29.8427 36.7558 82.9257 0
M  V30 28 C  29.1086 38.7763 84.0629 0
M  V30 29 C  30.4192 39.2675 83.9581 0
M  V30 30 O  30.8290 40.4986 84.4279 0
M  V30 31 C  29.8796 41.3835 85.0087 0
M  V30 32 C  31.4053 38.4930 83.3504 0
M  V30 33 C  31.1520 37.2292 82.8217 0
M  V30 34 H  23.1794 44.3826 89.3731 0
M  V30 35 H  21.4777 43.8943 89.5831 0
M  V30 36 H  21.7813 46.3156 90.2497 0
M  V30 37 H  20.6643 46.1172 88.9220 0
M  V30 38 H  22.1753 48.0003 88.4296 0
M  V30 39 H  23.5860 47.0089 88.7110 0
M  V30 40 H  21.5504 46.6735 86.4442 0
M  V30 41 H  23.2008 47.2090 86.2724 0
M  V30 42 H  24.0270 44.9272 87.0124 0
M  V30 43 H  22.8998 44.7656 85.6437 0
M  V30 44 H  22.3797 42.6333 86.1686 0
M  V30 45 H  23.3857 42.5024 87.6525 0
M  V30 46 H  21.4029 41.7134 88.9460 0
M  V30 47 H  20.2996 42.2351 87.6784 0
M  V30 48 H  23.0366 40.5281 86.4800 0
M  V30 49 H  20.2365 38.2455 85.6393 0
M  V30 50 H  20.5791 36.3127 84.1911 0
M  V30 51 H  24.4884 38.9483 85.7217 0
M  V30 52 H  22.5877 34.8467 82.8737 0
M  V30 53 H  26.4093 37.9697 84.7067 0
M  V30 54 H  27.4071 34.6666 82.5898 0
M  V30 55 H  29.7415 34.8098 82.0304 0
M  V30 56 H  28.3366 39.3623 84.5333 0
M  V30 57 H  30.3781 42.3133 85.2880 0
M  V30 58 H  29.0852 41.6352 84.3072 0
M  V30 59 H  29.4437 40.9611 85.9166 0
M  V30 60 H  32.4071 38.8934 83.2852 0
M  V30 61 H  31.9347 36.6510 82.3493 0
M  V30 62 H  21.1223 44.3754 87.2338 0
M  V30 END ATOM
M  V30 BEGIN BOND
M  V30 1 1 1 2
M  V30 2 1 1 6
M  V30 3 1 1 34
M  V30 4 1 1 35
M  V30 5 1 2 3
M  V30 6 1 2 36
M  V30 7 1 2 37
M  V30 8 1 3 4
M  V30 9 1 3 38
M  V30 10 1 3 39
M  V30 11 1 4 5
M  V30 12 1 4 40
M  V30 13 1 4 41
M  V30 14 1 5 6
M  V30 15 1 5 42
M  V30 16 1 5 43
M  V30 17 1 6 7
M  V30 18 1 6 62
M  V30 19 1 7 8
M  V30 20 1 7 44
M  V30 21 1 7 45
M  V30 22 1 8 9
M  V30 23 1 8 46
M  V30 24 1 8 47
M  V30 25 2 9 10
M  V30 26 1 9 11
M  V30 27 1 11 12
M  V30 28 1 11 48
M  V30 29 2 12 13
M  V30 30 1 12 15
M  V30 31 1 13 14
M  V30 32 1 13 49
M  V30 33 2 14 17
M  V30 34 1 14 50
M  V30 35 2 15 16
M  V30 36 1 15 51
M  V30 37 1 16 17
M  V30 38 1 16 18
M  V30 39 1 17 21
M  V30 40 1 18 19
M  V30 41 2 18 22
M  V30 42 2 19 20
M  V30 43 1 19 21
M  V30 44 1 21 52
M  V30 45 1 22 23
M  V30 46 1 22 53
M  V30 47 2 23 24
M  V30 48 1 23 26
M  V30 49 1 24 25
M  V30 50 1 24 54
M  V30 51 1 25 27
M  V30 52 1 25 55
M  V30 53 2 26 27
M  V30 54 1 26 28
M  V30 55 1 27 33
M  V30 56 2 28 29
M  V30 57 1 28 56
M  V30 58 1 29 30
M  V30 59 1 29 32
M  V30 60 1 30 31
M  V30 61 1 31 57
M  V30 62 1 31 58
M  V30 63 1 31 59
M  V30 64 2 32 33
M  V30 65 1 32 60
M  V30 66 1 33 61
M  V30 END BOND
M  V30 END CTAB
M  END
> <s_m_entry_id>
561

> <s_m_entry_name>
result.4530

> <s_m_Source_Path>
D:\OneDrive - zju.edu.cn\DOC\A-Finished\LCK_VS\Planet\LCK-8617

> <s_m_Source_File>
glide-dock_SP_top1262_2_pv.maegz

> <i_m_Source_File_Index>
561

> <PLANET_affinity>
8.8

> <i_lp_mmshare_version>
54117

> <i_f3d_flags>
0

> <s_epik_input>
W0NIMl0xW0NIMl1bQ0gyXVtDSDJdW0NIMl1OMVtDSDJdW0NIMl1DKD1PKVtOSF1jKFtjSF0yKVtjSF1bY0hdYyhjMjMpW05IXUMoPU8pQ1wzPVtDSF0vYzRbY0hdW25IXWMoYzQ1KVtjSF1bY0hdYyhbY0hdNSlPW0NIM10=

> <s_epik_cmdline>
J2VwaWtfcHl0aG9uJywgJy1waCcsICc3LjAnLCAnLXRuJywgJzgnLCAnLW1hJywgJzUwMCcsICctaW1hZScsICc8aW5maWxlLm1hZT4nLCAnLW9tYWUnLCAnPG91dGZpbGUubWFlPic=

> <r_epik_Ionization_Penalty>
  0.0032

> <r_epik_Ionization_Penalty_Charging>
  0.0032

> <r_epik_Ionization_Penalty_Neutral>
  0.0000

> <r_epik_State_Penalty>
  0.0023

> <r_epik_Charging_Adjusted_Penalty>
0.00546124

> <i_epik_Tot_Q>
1

> <i_epik_Tot_abs_Q>
1

> <s_lp_Force_Field>
S-OPLS

> <r_lp_Energy>
53.017

> <b_lp_Chiralities_Consistent>
1

> <s_lp_Variant>
O=C(CCN1CCCCC1)NC2=CC=C(NC(/C3=C\C4=CNC5=C4C=C(OC)C=C5)=O)C3=C2-1

> <s_i_glide_gridfile>
glide-grid_1

> <i_i_glide_lignum>
603

> <i_i_glide_rotatable_bonds>
7

> <r_i_docking_score>
-7.93922303262631

> <r_i_glide_ligand_efficiency>
-0.240582516140191

> <r_i_glide_ligand_efficiency_sa>
-0.771676678817048

> <r_i_glide_ligand_efficiency_ln>
-1.76564209535923

> <r_i_glide_gscore>
-7.94152303262631

> <r_i_glide_lipo>
-2.15938197773833

> <r_i_glide_hbond>
-0.576564653259043

> <r_i_glide_metal>
0

> <r_i_glide_rewards>
-1.65896097589939

> <r_i_glide_evdw>
-38.6199569702148

> <r_i_glide_ecoul>
-12.3239898681641

> <r_i_glide_erotb>
0.352803114373944

> <r_i_glide_esite>
-0.119822211368137

> <r_i_glide_emodel>
-75.366516696805

> <r_i_glide_energy>
-50.9439468383789

> <r_i_glide_einternal>
8.59746932983398

> <i_i_glide_confnum>
18

> <i_i_glide_posenum>
50

> <r_i_glide_eff_state_penalty>
0.0023

> <s_m_subgroup_title>
glide-dock_SP_top1262_2_pv

> <s_m_subgroupid>
glide-dock_SP_top1262_2_pv

> <b_m_subgroup_collapsed>
0

$$$$
CC(N1CCC2=C(C(NC3=C(F)C=C(C4=CN(C)N=C4)C=C3)=NN2[C@@H]5COCC5)C1)=O
                    3D
 Schrodinger Suite 2021-3.
  0  0  0     0  0            999 V3000
M  V30 BEGIN CTAB
M  V30 COUNTS 56 60 0 0 0
M  V30 BEGIN ATOM
M  V30 1 C  18.6042 38.0825 86.1288 0
M  V30 2 C  17.3302 38.6569 85.5186 0
M  V30 3 O  17.6971 38.9562 84.1767 0
M  V30 4 C  18.5785 37.9438 83.7051 0
M  V30 5 C  19.3363 37.4529 84.9472 0 CFG=1
M  V30 6 N  20.7710 37.7562 84.9171 0
M  V30 7 N  21.6284 36.7307 84.9198 0
M  V30 8 C  22.8302 37.2489 84.8564 0
M  V30 9 C  22.7826 38.6612 84.8653 0
M  V30 10 C  21.4255 38.9640 84.8898 0
M  V30 11 C  23.8295 39.7764 84.8502 0
M  V30 12 N  23.1877 41.1166 84.8704 0
M  V30 13 C  23.5245 42.0279 85.8210 0
M  V30 14 O  24.4215 41.8353 86.6429 0
M  V30 15 C  22.8816 43.4164 85.7885 0
M  V30 16 C  21.9440 41.2435 84.0805 0
M  V30 17 C  20.8522 40.3682 84.7529 0
M  V30 18 N  23.8664 36.3572 84.7881 0
M  V30 19 C  25.1882 36.5969 84.3975 0
M  V30 20 C  25.6900 35.9543 83.2589 0
M  V30 21 F  24.9013 35.1466 82.5082 0
M  V30 22 C  27.0241 36.1217 82.8969 0
M  V30 23 C  27.8724 36.9441 83.6438 0
M  V30 24 C  27.3589 37.6053 84.7654 0
M  V30 25 C  26.0284 37.4242 85.1469 0
M  V30 26 C  29.3060 37.0767 83.2547 0
M  V30 27 C  30.0452 36.2611 82.4060 0
M  V30 28 N  31.3024 36.7978 82.3484 0
M  V30 29 C  32.4223 36.3565 81.5383 0
M  V30 30 N  31.4198 37.9039 83.0900 0
M  V30 31 C  30.2381 38.0553 83.6443 0
M  V30 32 H  18.3798 37.3616 86.9146 0
M  V30 33 H  19.1714 38.8970 86.5797 0
M  V30 34 H  16.4866 37.9635 85.5318 0
M  V30 35 H  16.9945 39.5554 86.0332 0
M  V30 36 H  19.2192 38.3524 82.9233 0
M  V30 37 H  17.9955 37.1490 83.2414 0
M  V30 38 H  19.2748 36.3632 84.9896 0
M  V30 39 H  24.5522 39.6860 84.0439 0
M  V30 40 H  24.4622 39.6401 85.7267 0
M  V30 41 H  21.8059 43.3618 85.9598 0
M  V30 42 H  23.0659 43.8969 84.8276 0
M  V30 43 H  23.3071 44.0541 86.5629 0
M  V30 44 H  21.6522 42.2767 83.8906 0
M  V30 45 H  22.1581 40.8704 83.0775 0
M  V30 46 H  20.5821 40.7847 85.7238 0
M  V30 47 H  19.9421 40.3801 84.1592 0
M  V30 48 H  23.6148 35.3865 84.6719 0
M  V30 49 H  27.4034 35.5859 82.0435 0
M  V30 50 H  27.9969 38.2348 85.3677 0
M  V30 51 H  25.6654 37.8987 86.0457 0
M  V30 52 H  29.7954 35.3769 81.8356 0
M  V30 53 H  32.3018 35.3025 81.2819 0
M  V30 54 H  32.4564 36.9469 80.6208 0
M  V30 55 H  33.3559 36.4815 82.0911 0
M  V30 56 H  30.0462 38.8821 84.3123 0
M  V30 END ATOM
M  V30 BEGIN BOND
M  V30 1 1 1 2
M  V30 2 1 1 5
M  V30 3 1 1 32
M  V30 4 1 1 33
M  V30 5 1 2 3
M  V30 6 1 2 34
M  V30 7 1 2 35
M  V30 8 1 3 4
M  V30 9 1 4 5
M  V30 10 1 4 36
M  V30 11 1 4 37
M  V30 12 1 5 6
M  V30 13 1 5 38
M  V30 14 1 6 7
M  V30 15 1 6 10
M  V30 16 2 7 8
M  V30 17 1 8 9
M  V30 18 1 8 18
M  V30 19 2 9 10
M  V30 20 1 9 11
M  V30 21 1 10 17
M  V30 22 1 11 12
M  V30 23 1 11 39
M  V30 24 1 11 40
M  V30 25 1 12 13
M  V30 26 1 12 16
M  V30 27 2 13 14
M  V30 28 1 13 15
M  V30 29 1 15 41
M  V30 30 1 15 42
M  V30 31 1 15 43
M  V30 32 1 16 17
M  V30 33 1 16 44
M  V30 34 1 16 45
M  V30 35 1 17 46
M  V30 36 1 17 47
M  V30 37 1 18 19
M  V30 38 1 18 48
M  V30 39 2 19 20
M  V30 40 1 19 25
M  V30 41 1 20 21
M  V30 42 1 20 22
M  V30 43 2 22 23
M  V30 44 1 22 49
M  V30 45 1 23 24
M  V30 46 1 23 26
M  V30 47 2 24 25
M  V30 48 1 24 50
M  V30 49 1 25 51
M  V30 50 2 26 27
M  V30 51 1 26 31
M  V30 52 1 27 28
M  V30 53 1 27 52
M  V30 54 1 28 29
M  V30 55 1 28 30
M  V30 56 1 29 53
M  V30 57 1 29 54
M  V30 58 1 29 55
M  V30 59 2 30 31
M  V30 60 1 31 56
M  V30 END BOND
M  V30 END CTAB
M  END
> <s_m_entry_id>
565

> <s_m_entry_name>
result.2168

> <s_m_Source_Path>
D:\OneDrive - zju.edu.cn\DOC\A-Finished\LCK_VS\Planet\LCK-8617

> <s_m_Source_File>
glide-dock_SP_top1262_2_pv.maegz

> <i_m_Source_File_Index>
565

> <PLANET_affinity>
7.588

> <i_lp_mmshare_version>
54117

> <i_f3d_flags>
0

> <s_epik_input>
Tz1DKFtDSDNdKU4oW0NIMl0xKVtDSDJdW0NIMl1jKGMxMiluKFtDQEhdM1tDSDJdW0NIMl1PW0NIMl0zKW5jMltOSF1jNGMoRilbY0hdYyhbY0hdW2NIXTQpLWM1W2NIXW4oW0NIM10pbltjSF01

> <s_epik_cmdline>
J2VwaWtfcHl0aG9uJywgJy1waCcsICc3LjAnLCAnLXRuJywgJzgnLCAnLW1hJywgJzUwMCcsICctaW1hZScsICc8aW5maWxlLm1hZT4nLCAnLW9tYWUnLCAnPG91dGZpbGUubWFlPic=

> <r_epik_Ionization_Penalty>
  0.0035

> <r_epik_Ionization_Penalty_Charging>
  0.0000

> <r_epik_Ionization_Penalty_Neutral>
  0.0035

> <r_epik_State_Penalty>
  0.0024

> <r_epik_Charging_Adjusted_Penalty>
0.00244535

> <i_epik_Tot_Q>
0

> <i_epik_Tot_abs_Q>
0

> <s_lp_Force_Field>
S-OPLS

> <r_lp_Energy>
28.4916

> <b_lp_Chiralities_Consistent>
1

> <s_lp_Variant>
CC(N1CCC2=C(C(NC3=C(F)C=C(C4=CN(C)N=C4)C=C3)=NN2[C@@H]5COCC5)C1)=O-1

> <s_i_glide_gridfile>
glide-grid_1

> <i_i_glide_lignum>
1804

> <i_i_glide_rotatable_bonds>
5

> <r_i_docking_score>
-7.9305413602436

> <r_i_glide_ligand_efficiency>
-0.255823914846568

> <r_i_glide_ligand_efficiency_sa>
-0.803640295598134

> <r_i_glide_ligand_efficiency_ln>
-1.78858011863939

> <r_i_glide_gscore>
-7.9329413602436

> <r_i_glide_lipo>
-3.39464020146106

> <r_i_glide_hbond>
-0.32

> <r_i_glide_metal>
0

> <r_i_glide_rewards>
-1.46242062620095

> <r_i_glide_evdw>
-43.7777976989746

> <r_i_glide_ecoul>
-6.63492155075073

> <r_i_glide_erotb>
0.44020605397193

> <r_i_glide_esite>
-0.0119584689921704

> <r_i_glide_emodel>
-71.3315351183175

> <r_i_glide_energy>
-50.4127192497253

> <r_i_glide_einternal>
5.6994833946228

> <i_i_glide_confnum>
87

> <i_i_glide_posenum>
285

> <r_i_glide_eff_state_penalty>
0.0024

> <r_lp_tautomer_probability>
1

> <s_m_subgroup_title>
glide-dock_SP_top1262_2_pv

> <s_m_subgroupid>
glide-dock_SP_top1262_2_pv

> <b_m_subgroup_collapsed>
0

$$$$
O=C(CC1=CC=C(OCCCCCOC2=CC=CC(C(N3C4C(NC(CC4)=O)=O)=O)=C2C3=O)C=C1)NC5=CC(C6CC...
                    3D
 Schrodinger Suite 2021-3.
  0  0  0     0  0            999 V3000
M  V30 BEGIN CTAB
M  V30 COUNTS 80 85 0 0 0
M  V30 BEGIN ATOM
M  V30 1 C  18.7841 44.5704 93.8956 0
M  V30 2 C  17.9765 43.5779 94.7392 0
M  V30 3 C  18.1135 42.5722 93.5860 0
M  V30 4 C  19.3736 43.3555 93.1619 0
M  V30 5 C  19.6537 43.5593 91.6863 0
M  V30 6 N  18.6641 43.5586 90.8136 0
M  V30 7 N  19.2246 43.8672 89.6435 0
M  V30 8 C  20.8806 43.8296 91.0545 0
M  V30 9 C  20.5725 44.0671 89.7253 0
M  V30 10 N  21.2830 44.4633 88.6175 0
M  V30 11 C  22.6207 44.5098 88.4798 0
M  V30 12 O  23.4271 44.1620 89.3464 0
M  V30 13 C  23.1116 45.0761 87.1359 0
M  V30 14 C  24.1562 44.1994 86.4461 0
M  V30 15 C  25.5151 44.4980 86.5742 0
M  V30 16 C  26.4685 43.7084 85.9359 0
M  V30 17 C  26.0703 42.5891 85.1844 0
M  V30 18 C  24.7111 42.2985 85.0624 0
M  V30 19 C  23.7555 43.0986 85.6838 0
M  V30 20 O  26.9283 41.7124 84.5505 0
M  V30 21 C  28.3395 41.9193 84.5271 0
M  V30 22 C  29.0878 40.5702 84.4752 0
M  V30 23 C  28.6422 39.5537 83.3986 0
M  V30 24 C  27.3321 38.7870 83.6908 0
M  V30 25 C  27.4288 37.7561 84.8354 0
M  V30 26 O  26.1396 37.4336 85.3543 0
M  V30 27 C  25.2123 36.7783 84.5684 0
M  V30 28 C  25.5148 36.0181 83.4239 0
M  V30 29 C  24.4888 35.4194 82.6834 0
M  V30 30 C  23.1575 35.5566 83.0759 0
M  V30 31 C  23.8699 36.9043 84.9398 0
M  V30 32 C  22.8751 36.3160 84.2098 0
M  V30 33 C  23.2251 37.6602 86.0439 0
M  V30 34 O  23.7777 38.3588 86.8931 0
M  V30 35 N  21.8874 37.4421 85.9145 0
M  V30 36 C  21.5784 36.6773 84.8254 0
M  V30 37 O  20.4604 36.3567 84.4232 0
M  V30 38 C  20.9266 38.1234 86.8308 0 CFG=2
M  V30 39 C  19.6148 37.3314 87.1160 0
M  V30 40 O  19.5827 36.2870 87.7609 0
M  V30 41 N  18.5070 37.8302 86.5215 0
M  V30 42 C  18.3459 38.8046 85.5976 0
M  V30 43 O  17.2945 38.9327 84.9747 0
M  V30 44 C  19.5820 39.7040 85.3517 0
M  V30 45 C  20.6143 39.5929 86.4829 0
M  V30 46 H  18.1405 45.2002 93.2749 0
M  V30 47 H  19.4911 45.1939 94.4439 0
M  V30 48 H  16.9606 43.8945 94.9835 0
M  V30 49 H  18.4847 43.2614 95.6493 0
M  V30 50 H  18.2720 41.5396 93.8974 0
M  V30 51 H  17.2708 42.6336 92.8947 0
M  V30 52 H  20.2694 42.9769 93.6576 0
M  V30 53 H  18.6808 43.9622 88.7871 0
M  V30 54 H  21.8535 43.9140 91.5171 0
M  V30 55 H  20.7104 44.7518 87.8193 0
M  V30 56 H  22.2712 45.2209 86.4517 0
M  V30 57 H  23.5127 46.0735 87.3210 0
M  V30 58 H  25.8373 45.3466 87.1582 0
M  V30 59 H  27.5043 43.9855 86.0475 0
M  V30 60 H  24.4003 41.4468 84.4745 0
M  V30 61 H  22.7066 42.8627 85.5711 0
M  V30 62 H  28.5843 42.5305 83.6580 0
M  V30 63 H  28.7192 42.4466 85.4034 0
M  V30 64 H  30.1385 40.7942 84.3029 0
M  V30 65 H  29.0650 40.1140 85.4622 0
M  V30 66 H  28.5544 40.0711 82.4448 0
M  V30 67 H  29.4447 38.8235 83.2574 0
M  V30 68 H  26.5272 39.4856 83.9066 0
M  V30 69 H  27.0175 38.2695 82.7896 0
M  V30 70 H  27.9749 36.8640 84.5250 0
M  V30 71 H  27.9878 38.1738 85.6678 0
M  V30 72 H  26.5354 35.8897 83.0957 0
M  V30 73 H  24.7194 34.8632 81.7906 0
M  V30 74 H  22.3673 35.1182 82.4858 0
M  V30 75 H  21.4139 38.1247 87.8067 0
M  V30 76 H  17.6730 37.2849 86.6810 0
M  V30 77 H  20.0241 39.3937 84.4031 0
M  V30 78 H  19.2875 40.7448 85.2414 0
M  V30 79 H  20.2517 40.1207 87.3671 0
M  V30 80 H  21.5274 40.1181 86.1968 0
M  V30 END ATOM
M  V30 BEGIN BOND
M  V30 1 1 1 2
M  V30 2 1 1 4
M  V30 3 1 1 46
M  V30 4 1 1 47
M  V30 5 1 2 3
M  V30 6 1 2 48
M  V30 7 1 2 49
M  V30 8 1 3 4
M  V30 9 1 3 50
M  V30 10 1 3 51
M  V30 11 1 4 5
M  V30 12 1 4 52
M  V30 13 2 5 6
M  V30 14 1 5 8
M  V30 15 1 6 7
M  V30 16 1 7 9
M  V30 17 1 7 53
M  V30 18 2 8 9
M  V30 19 1 8 54
M  V30 20 1 9 10
M  V30 21 1 10 11
M  V30 22 1 10 55
M  V30 23 2 11 12
M  V30 24 1 11 13
M  V30 25 1 13 14
M  V30 26 1 13 56
M  V30 27 1 13 57
M  V30 28 2 14 15
M  V30 29 1 14 19
M  V30 30 1 15 16
M  V30 31 1 15 58
M  V30 32 2 16 17
M  V30 33 1 16 59
M  V30 34 1 17 18
M  V30 35 1 17 20
M  V30 36 2 18 19
M  V30 37 1 18 60
M  V30 38 1 19 61
M  V30 39 1 20 21
M  V30 40 1 21 22
M  V30 41 1 21 62
M  V30 42 1 21 63
M  V30 43 1 22 23
M  V30 44 1 22 64
M  V30 45 1 22 65
M  V30 46 1 23 24
M  V30 47 1 23 66
M  V30 48 1 23 67
M  V30 49 1 24 25
M  V30 50 1 24 68
M  V30 51 1 24 69
M  V30 52 1 25 26
M  V30 53 1 25 70
M  V30 54 1 25 71
M  V30 55 1 26 27
M  V30 56 2 27 28
M  V30 57 1 27 31
M  V30 58 1 28 29
M  V30 59 1 28 72
M  V30 60 2 29 30
M  V30 61 1 29 73
M  V30 62 1 30 32
M  V30 63 1 30 74
M  V30 64 2 31 32
M  V30 65 1 31 33
M  V30 66 1 32 36
M  V30 67 2 33 34
M  V30 68 1 33 35
M  V30 69 1 35 36
M  V30 70 1 35 38
M  V30 71 2 36 37
M  V30 72 1 38 39
M  V30 73 1 38 45
M  V30 74 1 38 75
M  V30 75 2 39 40
M  V30 76 1 39 41
M  V30 77 1 41 42
M  V30 78 1 41 76
M  V30 79 2 42 43
M  V30 80 1 42 44
M  V30 81 1 44 45
M  V30 82 1 44 77
M  V30 83 1 44 78
M  V30 84 1 45 79
M  V30 85 1 45 80
M  V30 END BOND
M  V30 END CTAB
M  END
> <s_m_entry_id>
566

> <s_m_entry_name>
result.4425

> <s_m_Source_Path>
D:\OneDrive - zju.edu.cn\DOC\A-Finished\LCK_VS\Planet\LCK-8617

> <s_m_Source_File>
glide-dock_SP_top1262_2_pv.maegz

> <i_m_Source_File_Index>
566

> <PLANET_affinity>
8.272

> <i_lp_mmshare_version>
54117

> <i_f3d_flags>
0

> <s_epik_input>
W0NIMl0xW0NIMl1bQ0gyXVtDSF0xYzJuW25IXWMoW2NIXTIpW05IXUMoPU8pW0NIMl1jM1tjSF1bY0hdYyhbY0hdW2NIXTMpT1tDSDJdW0NIMl1bQ0gyXVtDSDJdW0NIMl1PYzRbY0hdW2NIXVtjSF1jKGM0NSlDKD1PKU4oQzU9TylbQ0BASF02Qyg9TylbTkhdQyg9TylbQ0gyXVtDSDJdNg==

> <s_epik_cmdline>
J2VwaWtfcHl0aG9uJywgJy1waCcsICc3LjAnLCAnLXRuJywgJzgnLCAnLW1hJywgJzUwMCcsICctaW1hZScsICc8aW5maWxlLm1hZT4nLCAnLW9tYWUnLCAnPG91dGZpbGUubWFlPic=

> <r_epik_Ionization_Penalty>
  0.0002

> <r_epik_Ionization_Penalty_Charging>
  0.0000

> <r_epik_Ionization_Penalty_Neutral>
  0.0002

> <r_epik_State_Penalty>
  0.4107

> <r_epik_Charging_Adjusted_Penalty>
0.41068

> <i_epik_Tot_Q>
0

> <i_epik_Tot_abs_Q>
0

> <s_lp_Force_Field>
S-OPLS

> <r_lp_Energy>
52.2373

> <b_lp_Chiralities_Consistent>
1

> <s_lp_Variant>
O=C(CC1=CC=C(OCCCCCOC2=CC=CC(C(N3C4C(NC(CC4)=O)=O)=O)=C2C3=O)C=C1)NC5=CC(C6CC...-1

> <s_i_glide_gridfile>
glide-grid_1

> <i_i_glide_lignum>
1002

> <i_i_glide_rotatable_bonds>
14

> <r_i_docking_score>
-7.93020480804796

> <r_i_glide_ligand_efficiency>
-0.176226773512177

> <r_i_glide_ligand_efficiency_sa>
-0.626819829981985

> <r_i_glide_ligand_efficiency_ln>
-1.64983599845532

> <r_i_glide_gscore>
-8.34090480804796

> <r_i_glide_lipo>
-2.44421293326272

> <r_i_glide_hbond>
-0.661447524609011

> <r_i_glide_metal>
0

> <r_i_glide_rewards>
-1.23023414715959

> <r_i_glide_evdw>
-51.0962257385254

> <r_i_glide_ecoul>
-12.4379606246948

> <r_i_glide_erotb>
0.656033193825644

> <r_i_glide_esite>
-0.240538016211787

> <r_i_glide_emodel>
-89.2280680379141

> <r_i_glide_energy>
-63.5341863632202

> <r_i_glide_einternal>
17.7141265869141

> <i_i_glide_confnum>
176

> <i_i_glide_posenum>
284

> <r_i_glide_eff_state_penalty>
0.4107

> <r_lp_tautomer_probability>
0.499975

> <s_m_subgroup_title>
glide-dock_SP_top1262_2_pv

> <s_m_subgroupid>
glide-dock_SP_top1262_2_pv

> <b_m_subgroup_collapsed>
0

$$$$
O=C(C1=CC2=CN=C(NC3=NC=C(N4CCN(CCCCNC(COC5=CC=CC(C(N6C(CC7)C(NC7=O)=O)=O)=C5C...
                    3D
 Schrodinger Suite 2021-3.
  0  0  0     0  0            999 V3000
M  V30 BEGIN CTAB
M  V30 COUNTS 110 117 0 0 0
M  V30 BEGIN ATOM
M  V30 1 C  25.1561 38.7557 86.9689 0
M  V30 2 C  26.0858 39.9626 87.0670 0
M  V30 3 C  26.1505 40.5498 85.6557 0
M  V30 4 C  24.8578 40.1087 84.9506 0
M  V30 5 C  24.0975 39.2160 85.9571 0
M  V30 6 N  23.3439 38.1032 85.3365 0
M  V30 7 C  21.9612 37.8733 85.4342 0
M  V30 8 C  21.6627 36.7473 84.6727 0
M  V30 9 C  21.0332 38.5604 86.3364 0
M  V30 10 O  21.4342 38.9385 87.4407 0
M  V30 11 N  19.7282 38.6978 85.9562 0
M  V30 12 C  18.7041 39.1649 86.8988 0
M  V30 13 C  19.1625 38.4485 84.6221 0
M  V30 14 C  23.9079 37.1275 84.5078 0
M  V30 15 C  22.8593 36.2901 84.0578 0
M  V30 16 N  25.2021 36.9763 84.1595 0
M  V30 17 C  25.4218 35.9386 83.3034 0
M  V30 18 N  24.5127 35.0780 82.7978 0
M  V30 19 C  23.2266 35.2510 83.1946 0
M  V30 20 N  26.7426 35.6621 82.8435 0
M  V30 21 C  27.9567 36.3575 83.1133 0
M  V30 22 N  27.9908 37.4220 83.9375 0 CHG=1
M  V30 23 C  29.1011 38.1439 84.1857 0
M  V30 24 C  30.3199 37.8092 83.5726 0
M  V30 25 C  30.3233 36.6835 82.7266 0
M  V30 26 C  29.1494 35.9573 82.4995 0
M  V30 27 N  31.4520 38.6110 83.7294 0
M  V30 28 C  32.8183 38.0464 83.7368 0
M  V30 29 C  33.9330 39.0737 83.4262 0
M  V30 30 N  33.8597 40.2131 84.3401 0
M  V30 31 C  32.5584 40.8560 84.1391 0
M  V30 32 C  31.4152 39.8808 84.4856 0
M  V30 33 C  34.9888 41.1239 84.1165 0
M  V30 34 C  35.0131 42.3170 85.0981 0
M  V30 35 C  35.0303 41.9253 86.5956 0
M  V30 36 C  34.5380 43.0425 87.5328 0
M  V30 37 N  33.1233 43.3632 87.3307 0
M  V30 38 C  32.1007 42.7227 87.9234 0
M  V30 39 O  32.2573 41.8139 88.7391 0
M  V30 40 C  30.6911 43.2134 87.5441 0
M  V30 41 O  29.7115 42.8662 88.5312 0
M  V30 42 C  29.5944 43.6083 89.6945 0
M  V30 43 C  30.4890 44.6170 90.1054 0
M  V30 44 C  30.2634 45.3321 91.2885 0
M  V30 45 C  29.1355 45.0645 92.0687 0
M  V30 46 C  28.4794 43.3567 90.5020 0
M  V30 47 C  28.2519 44.0731 91.6449 0
M  V30 48 C  27.3606 42.3877 90.3600 0
M  V30 49 O  27.2108 41.5500 89.4753 0
M  V30 50 N  26.5256 42.6226 91.4091 0
M  V30 51 C  26.9728 43.6110 92.2306 0
M  V30 52 O  26.4286 44.0416 93.2435 0
M  V30 53 C  25.2373 41.8957 91.5975 0 CFG=2
M  V30 54 C  23.9116 42.6992 91.5690 0
M  V30 55 C  23.4247 43.2190 92.9410 0
M  V30 56 C  23.6983 42.2380 94.1026 0
M  V30 57 O  23.2829 42.4180 95.2436 0
M  V30 58 N  24.4652 41.1670 93.8135 0
M  V30 59 C  25.2951 40.8990 92.7847 0
M  V30 60 O  26.0828 39.9600 92.8431 0
M  V30 61 H  24.7235 38.4936 87.9367 0
M  V30 62 H  25.7246 37.8978 86.6084 0
M  V30 63 H  25.6359 40.6952 87.7388 0
M  V30 64 H  27.0681 39.7090 87.4668 0
M  V30 65 H  26.2462 41.6363 85.6860 0
M  V30 66 H  27.0204 40.1698 85.1235 0
M  V30 67 H  25.1336 39.5734 84.0442 0
M  V30 68 H  24.2547 40.9662 84.6474 0
M  V30 69 H  23.4015 39.8715 86.4766 0
M  V30 70 H  20.6824 36.3085 84.5915 0
M  V30 71 H  19.1197 39.5671 87.8263 0
M  V30 72 H  18.1042 39.9589 86.4494 0
M  V30 73 H  18.0249 38.3499 87.1637 0
M  V30 74 H  18.5512 37.5436 84.6279 0
M  V30 75 H  18.5169 39.2786 84.3295 0
M  V30 76 H  19.9159 38.3615 83.8411 0
M  V30 77 H  22.4942 34.5429 82.8435 0
M  V30 78 H  26.8177 34.8831 82.2082 0
M  V30 79 H  28.9689 38.9671 84.8709 0
M  V30 80 H  31.2157 36.3794 82.1990 0
M  V30 81 H  29.1774 35.1115 81.8219 0
M  V30 82 H  33.0090 37.6429 84.7320 0
M  V30 83 H  32.9212 37.2176 83.0394 0
M  V30 84 H  33.8583 39.4047 82.3896 0
M  V30 85 H  34.9034 38.5843 83.5302 0
M  V30 86 H  32.4557 41.7253 84.7870 0
M  V30 87 H  32.4535 41.2223 83.1164 0
M  V30 88 H  31.4713 39.6570 85.5544 0
M  V30 89 H  30.4795 40.4098 84.3058 0
M  V30 90 H  34.9774 41.4926 83.0890 0
M  V30 91 H  35.9157 40.5620 84.2438 0
M  V30 92 H  34.1964 42.9981 84.8614 0
M  V30 93 H  35.9036 42.9122 84.8913 0
M  V30 94 H  36.0406 41.6271 86.8779 0
M  V30 95 H  34.4167 41.0414 86.7735 0
M  V30 96 H  35.0973 43.9537 87.3191 0
M  V30 97 H  34.7533 42.7971 88.5740 0
M  V30 98 H  32.9171 44.0960 86.6661 0
M  V30 99 H  30.4030 42.7165 86.6168 0
M  V30 100 H  30.6776 44.2836 87.3293 0
M  V30 101 H  31.3645 44.8585 89.5221 0
M  V30 102 H  30.9611 46.0981 91.5931 0
M  V30 103 H  28.9584 45.6283 92.9731 0
M  V30 104 H  25.1627 41.2158 90.7470 0
M  V30 105 H  23.1302 42.0715 91.1358 0
M  V30 106 H  24.0049 43.5408 90.8787 0
M  V30 107 H  23.9244 44.1522 93.1974 0
M  V30 108 H  22.3610 43.4550 92.9112 0
M  V30 109 H  24.5829 40.5382 94.5985 0
M  V30 110 H  27.1156 37.6843 84.3738 0
M  V30 END ATOM
M  V30 BEGIN BOND
M  V30 1 1 1 2
M  V30 2 1 1 5
M  V30 3 1 1 61
M  V30 4 1 1 62
M  V30 5 1 2 3
M  V30 6 1 2 63
M  V30 7 1 2 64
M  V30 8 1 3 4
M  V30 9 1 3 65
M  V30 10 1 3 66
M  V30 11 1 4 5
M  V30 12 1 4 67
M  V30 13 1 4 68
M  V30 14 1 5 6
M  V30 15 1 5 69
M  V30 16 1 6 7
M  V30 17 1 6 14
M  V30 18 2 7 8
M  V30 19 1 7 9
M  V30 20 1 8 15
M  V30 21 1 8 70
M  V30 22 2 9 10
M  V30 23 1 9 11
M  V30 24 1 11 12
M  V30 25 1 11 13
M  V30 26 1 12 71
M  V30 27 1 12 72
M  V30 28 1 12 73
M  V30 29 1 13 74
M  V30 30 1 13 75
M  V30 31 1 13 76
M  V30 32 2 14 15
M  V30 33 1 14 16
M  V30 34 1 15 19
M  V30 35 2 16 17
M  V30 36 1 17 18
M  V30 37 1 17 20
M  V30 38 2 18 19
M  V30 39 1 19 77
M  V30 40 1 20 21
M  V30 41 1 20 78
M  V30 42 2 21 22
M  V30 43 1 21 26
M  V30 44 1 22 23
M  V30 45 1 22 110
M  V30 46 2 23 24
M  V30 47 1 23 79
M  V30 48 1 24 25
M  V30 49 1 24 27
M  V30 50 2 25 26
M  V30 51 1 25 80
M  V30 52 1 26 81
M  V30 53 1 27 28
M  V30 54 1 27 32
M  V30 55 1 28 29
M  V30 56 1 28 82
M  V30 57 1 28 83
M  V30 58 1 29 30
M  V30 59 1 29 84
M  V30 60 1 29 85
M  V30 61 1 30 31
M  V30 62 1 30 33
M  V30 63 1 31 32
M  V30 64 1 31 86
M  V30 65 1 31 87
M  V30 66 1 32 88
M  V30 67 1 32 89
M  V30 68 1 33 34
M  V30 69 1 33 90
M  V30 70 1 33 91
M  V30 71 1 34 35
M  V30 72 1 34 92
M  V30 73 1 34 93
M  V30 74 1 35 36
M  V30 75 1 35 94
M  V30 76 1 35 95
M  V30 77 1 36 37
M  V30 78 1 36 96
M  V30 79 1 36 97
M  V30 80 1 37 38
M  V30 81 1 37 98
M  V30 82 2 38 39
M  V30 83 1 38 40
M  V30 84 1 40 41
M  V30 85 1 40 99
M  V30 86 1 40 100
M  V30 87 1 41 42
M  V30 88 2 42 43
M  V30 89 1 42 46
M  V30 90 1 43 44
M  V30 91 1 43 101
M  V30 92 2 44 45
M  V30 93 1 44 102
M  V30 94 1 45 47
M  V30 95 1 45 103
M  V30 96 2 46 47
M  V30 97 1 46 48
M  V30 98 1 47 51
M  V30 99 2 48 49
M  V30 100 1 48 50
M  V30 101 1 50 51
M  V30 102 1 50 53
M  V30 103 2 51 52
M  V30 104 1 53 54
M  V30 105 1 53 59
M  V30 106 1 53 104
M  V30 107 1 54 55
M  V30 108 1 54 105
M  V30 109 1 54 106
M  V30 110 1 55 56
M  V30 111 1 55 107
M  V30 112 1 55 108
M  V30 113 2 56 57
M  V30 114 1 56 58
M  V30 115 1 58 59
M  V30 116 1 58 109
M  V30 117 2 59 60
M  V30 END BOND
M  V30 END CTAB
M  END
> <s_m_entry_id>
573

> <s_m_entry_name>
result.4177

> <s_m_Source_Path>
D:\OneDrive - zju.edu.cn\DOC\A-Finished\LCK_VS\Planet\LCK-8617

> <s_m_Source_File>
glide-dock_SP_top1262_2_pv.maegz

> <i_m_Source_File_Index>
573

> <PLANET_affinity>
12.61

> <i_lp_mmshare_version>
54117

> <i_f3d_flags>
0

> <s_epik_input>
W0NIMl0xW0NIMl1bQ0gyXVtDSDJdW0NIXTFuMmMoQyg9TylOKFtDSDNdKVtDSDNdKVtjSF1jKGMyMylbY0hdbmMobjMpW05IXWM0bltjSF1jKFtjSF1bY0hdNClONVtDSDJdW0NIMl1OKFtDSDJdW0NIMl01KVtDSDJdW0NIMl1bQ0gyXVtDSDJdW05IXUMoPU8pW0NIMl1PYzZbY0hdW2NIXVtjSF1jKGM2NylDKD1PKU4oQzc9TylbQ0BASF04W0NIMl1bQ0gyXUMoPU8pW05IXUM4PU8=

> <s_epik_cmdline>
J2VwaWtfcHl0aG9uJywgJy1waCcsICc3LjAnLCAnLXRuJywgJzgnLCAnLW1hJywgJzUwMCcsICctaW1hZScsICc8aW5maWxlLm1hZT4nLCAnLW9tYWUnLCAnPG91dGZpbGUubWFlPic=

> <r_epik_Ionization_Penalty>
  0.7648

> <r_epik_Ionization_Penalty_Charging>
  0.3885

> <r_epik_Ionization_Penalty_Neutral>
  0.3762

> <r_epik_State_Penalty>
  1.3408

> <r_epik_Charging_Adjusted_Penalty>
1.72936

> <i_epik_Tot_Q>
1

> <i_epik_Tot_abs_Q>
1

> <s_lp_Force_Field>
S-OPLS

> <r_lp_Energy>
112.488

> <b_lp_Chiralities_Consistent>
1

> <s_lp_Variant>
O=C(C1=CC2=CN=C(NC3=NC=C(N4CCN(CCCCNC(COC5=CC=CC(C(N6C(CC7)C(NC7=O)=O)=O)=C5C...-3

> <s_i_glide_gridfile>
glide-grid_1

> <i_i_glide_lignum>
97

> <i_i_glide_rotatable_bonds>
16

> <r_i_docking_score>
-7.92410103247606

> <r_i_glide_ligand_efficiency>
-0.132068350541268

> <r_i_glide_ligand_efficiency_sa>
-0.517030111250922

> <r_i_glide_ligand_efficiency_ln>
-1.55547017593558

> <r_i_glide_gscore>
-9.26490103247606

> <r_i_glide_lipo>
-2.11566068751277

> <r_i_glide_hbond>
-0.472659910815582

> <r_i_glide_metal>
0

> <r_i_glide_rewards>
-2.54791460786132

> <r_i_glide_evdw>
-59.2531394958496

> <r_i_glide_ecoul>
-9.61409091949463

> <r_i_glide_erotb>
0.278112086324455

> <r_i_glide_esite>
-0.0020072998941732

> <r_i_glide_emodel>
-110.692389697322

> <r_i_glide_energy>
-68.8672304153442

> <r_i_glide_einternal>
5.89845132827759

> <i_i_glide_confnum>
153

> <i_i_glide_posenum>
320

> <r_i_glide_eff_state_penalty>
1.3408

> <s_m_subgroup_title>
glide-dock_SP_top1262_2_pv

> <s_m_subgroupid>
glide-dock_SP_top1262_2_pv

> <b_m_subgroup_collapsed>
0

$$$$
O=C1N2C(C([C@H](NC3=CC=CC=C3C(O)=O)C)=CC(C)=C2)=NC(N4CCOCC4)=C1
                    3D
 Schrodinger Suite 2021-3.
  0  0  0     0  0            999 V3000
M  V30 BEGIN CTAB
M  V30 COUNTS 53 56 0 0 0
M  V30 BEGIN ATOM
M  V30 1 C  21.9044 36.2661 86.7935 0
M  V30 2 C  20.4303 35.8924 87.0546 0
M  V30 3 O  19.5926 37.0055 86.7674 0
M  V30 4 C  19.7036 37.4064 85.4041 0
M  V30 5 C  21.1617 37.8005 85.0756 0
M  V30 6 N  22.0871 36.7078 85.4041 0
M  V30 7 C  23.3221 36.6354 84.8126 0
M  V30 8 C  23.5436 35.8118 83.7759 0
M  V30 9 C  24.8715 35.6486 83.2423 0
M  V30 10 O  25.0983 34.7566 82.4340 0
M  V30 11 N  24.3102 37.3977 85.3561 0
M  V30 12 C  25.5059 37.3533 84.8613 0
M  V30 13 N  25.7961 36.5148 83.7701 0
M  V30 14 C  26.6129 38.1187 85.4445 0
M  V30 15 C  27.8661 37.9521 84.9422 0
M  V30 16 C  28.1511 37.1248 83.7801 0
M  V30 17 C  29.5295 37.0683 83.1516 0
M  V30 18 C  27.0899 36.4764 83.2612 0
M  V30 19 C  26.3791 39.1133 86.5903 0 CFG=1
M  V30 20 C  26.8742 38.5638 87.9371 0
M  V30 21 N  26.7531 40.5014 86.2905 0
M  V30 22 C  28.0970 40.9183 86.3689 0
M  V30 23 C  28.6074 41.1528 87.6519 0
M  V30 24 C  29.9201 41.5605 87.8417 0
M  V30 25 C  30.7433 41.7579 86.7430 0
M  V30 26 C  30.2471 41.5555 85.4581 0
M  V30 27 C  28.9175 41.1450 85.2201 0
M  V30 28 C  28.4457 40.9655 83.7798 0
M  V30 29 O  29.2819 41.0016 82.8436 0 CHG=-1
M  V30 30 O  27.2335 40.7567 83.5422 0
M  V30 31 H  22.5031 35.3668 86.9506 0
M  V30 32 H  22.3186 36.9782 87.5098 0
M  V30 33 H  20.2922 35.5930 88.0947 0
M  V30 34 H  20.1432 35.0283 86.4567 0
M  V30 35 H  19.0358 38.2508 85.2252 0
M  V30 36 H  19.3654 36.6100 84.7375 0
M  V30 37 H  21.4715 38.7516 85.5152 0
M  V30 38 H  21.2117 37.9836 84.0006 0
M  V30 39 H  22.7484 35.2034 83.3759 0
M  V30 40 H  28.6930 38.4834 85.3891 0
M  V30 41 H  29.5388 36.5346 82.2007 0
M  V30 42 H  29.8916 38.0814 82.9730 0
M  V30 43 H  30.2426 36.6157 83.8408 0
M  V30 44 H  27.2160 35.8728 82.3651 0
M  V30 45 H  25.2996 39.2114 86.7159 0
M  V30 46 H  26.4923 37.5561 88.0855 0
M  V30 47 H  27.9580 38.5114 87.9852 0
M  V30 48 H  26.5269 39.1738 88.7714 0
M  V30 49 H  26.3984 40.7404 85.3681 0
M  V30 50 H  27.9797 41.0161 88.5195 0
M  V30 51 H  30.2964 41.7201 88.8420 0
M  V30 52 H  31.7672 42.0748 86.8811 0
M  V30 53 H  30.9213 41.7436 84.6341 0
M  V30 END ATOM
M  V30 BEGIN BOND
M  V30 1 1 1 2
M  V30 2 1 1 6
M  V30 3 1 1 31
M  V30 4 1 1 32
M  V30 5 1 2 3
M  V30 6 1 2 33
M  V30 7 1 2 34
M  V30 8 1 3 4
M  V30 9 1 4 5
M  V30 10 1 4 35
M  V30 11 1 4 36
M  V30 12 1 5 6
M  V30 13 1 5 37
M  V30 14 1 5 38
M  V30 15 1 6 7
M  V30 16 2 7 8
M  V30 17 1 7 11
M  V30 18 1 8 9
M  V30 19 1 8 39
M  V30 20 2 9 10
M  V30 21 1 9 13
M  V30 22 2 11 12
M  V30 23 1 12 13
M  V30 24 1 12 14
M  V30 25 1 13 18
M  V30 26 2 14 15
M  V30 27 1 14 19
M  V30 28 1 15 16
M  V30 29 1 15 40
M  V30 30 1 16 17
M  V30 31 2 16 18
M  V30 32 1 17 41
M  V30 33 1 17 42
M  V30 34 1 17 43
M  V30 35 1 18 44
M  V30 36 1 19 20
M  V30 37 1 19 21
M  V30 38 1 19 45
M  V30 39 1 20 46
M  V30 40 1 20 47
M  V30 41 1 20 48
M  V30 42 1 21 22
M  V30 43 1 21 49
M  V30 44 2 22 23
M  V30 45 1 22 27
M  V30 46 1 23 24
M  V30 47 1 23 50
M  V30 48 2 24 25
M  V30 49 1 24 51
M  V30 50 1 25 26
M  V30 51 1 25 52
M  V30 52 2 26 27
M  V30 53 1 26 53
M  V30 54 1 27 28
M  V30 55 1 28 29
M  V30 56 2 28 30
M  V30 END BOND
M  V30 END CTAB
M  END
> <s_m_entry_id>
583

> <s_m_entry_name>
result.5372

> <s_m_Source_Path>
D:\OneDrive - zju.edu.cn\DOC\A-Finished\LCK_VS\Planet\LCK-8617

> <s_m_Source_File>
glide-dock_SP_top1262_2_pv.maegz

> <i_m_Source_File_Index>
583

> <PLANET_affinity>
7.668

> <i_lp_mmshare_version>
54117

> <i_f3d_flags>
0

> <s_epik_input>
W0NIMl0xW0NIMl1PW0NIMl1bQ0gyXU4xYyhuMilbY0hdYyg9TyluKGMyMylbY0hdYyhbQ0gzXSlbY0hdYzNbQ0BASF0oW0NIM10pW05IXWM0W2NIXVtjSF1bY0hdW2NIXWM0Qyg9TylbT0hd

> <s_epik_cmdline>
J2VwaWtfcHl0aG9uJywgJy1waCcsICc3LjAnLCAnLXRuJywgJzgnLCAnLW1hJywgJzUwMCcsICctaW1hZScsICc8aW5maWxlLm1hZT4nLCAnLW9tYWUnLCAnPG91dGZpbGUubWFlPic=

> <r_epik_Ionization_Penalty>
  0.0015

> <r_epik_Ionization_Penalty_Charging>
  0.0015

> <r_epik_Ionization_Penalty_Neutral>
  0.0000

> <r_epik_State_Penalty>
  0.0010

> <r_epik_Charging_Adjusted_Penalty>
0.00242639

> <i_epik_Tot_Q>
-1

> <i_epik_Tot_abs_Q>
1

> <s_epik_Chemistry_Notes>
This compound has an imine and may undergo hydrolysis.

> <s_lp_Force_Field>
S-OPLS

> <r_lp_Energy>
54.1231

> <b_lp_Chiralities_Consistent>
1

> <s_lp_Variant>
O=C1N2C(C([C@H](NC3=CC=CC=C3C(O)=O)C)=CC(C)=C2)=NC(N4CCOCC4)=C1-1

> <s_i_glide_gridfile>
glide-grid_1

> <i_i_glide_lignum>
1699

> <i_i_glide_rotatable_bonds>
5

> <r_i_docking_score>
-7.90902489790373

> <r_i_glide_ligand_efficiency>
-0.263634163263458

> <r_i_glide_ligand_efficiency_sa>
-0.81917264084344

> <r_i_glide_ligand_efficiency_ln>
-1.79701663253213

> <r_i_glide_gscore>
-7.91002489790373

> <r_i_glide_lipo>
-2.91638238675886

> <r_i_glide_hbond>
-0.48

> <r_i_glide_metal>
0

> <r_i_glide_rewards>
-1.99728424138541

> <r_i_glide_evdw>
-37.6208114624023

> <r_i_glide_ecoul>
-7.16309070587158

> <r_i_glide_erotb>
0.473994239278479

> <r_i_glide_esite>
-0.0348483300370889

> <r_i_glide_emodel>
-63.4791607128594

> <r_i_glide_energy>
-44.7839021682739

> <r_i_glide_einternal>
5.15165615081787

> <i_i_glide_confnum>
208

> <i_i_glide_posenum>
147

> <r_i_glide_eff_state_penalty>
0.001

> <s_m_subgroup_title>
glide-dock_SP_top1262_2_pv

> <s_m_subgroupid>
glide-dock_SP_top1262_2_pv

> <b_m_subgroup_collapsed>
0

$$$$
O=C(N1CCN([C@@H](C2=CC(NC3=NC4=CC=C(C5=NC=NC(N(C)C)=C5)C=C4N3)=NC=C2)C)CC1)CC...
                    3D
 Schrodinger Suite 2021-3.
  0  0  0     0  0            999 V3000
M  V30 BEGIN CTAB
M  V30 COUNTS 71 75 0 0 0
M  V30 BEGIN ATOM
M  V30 1 F  26.0819 41.3557 92.4769 0
M  V30 2 C  26.7057 42.2880 91.7554 0
M  V30 3 F  26.5698 43.4438 92.4026 0
M  V30 4 F  28.0041 41.9911 91.7497 0
M  V30 5 C  26.1351 42.4070 90.3285 0
M  V30 6 C  26.1878 41.0840 89.5489 0
M  V30 7 O  25.1960 40.3573 89.6182 0
M  V30 8 N  27.2914 40.7427 88.8271 0
M  V30 9 C  27.3356 39.4454 88.1163 0
M  V30 10 C  27.7760 39.6679 86.6531 0
M  V30 11 N  29.1132 40.4508 86.5992 0 CHG=1
M  V30 12 C  28.9269 41.8014 87.3277 0
M  V30 13 C  28.5473 41.5266 88.7974 0
M  V30 14 C  29.7247 40.6036 85.1732 0 CFG=2
M  V30 15 C  28.8807 41.5218 84.2559 0
M  V30 16 C  30.0717 39.2575 84.5341 0
M  V30 17 C  29.0838 38.4769 83.9242 0
M  V30 18 C  29.4115 37.2097 83.4330 0
M  V30 19 N  30.6863 36.7499 83.4290 0
M  V30 20 C  31.6508 37.5261 83.9846 0
M  V30 21 C  31.3845 38.7717 84.5566 0
M  V30 22 N  28.4510 36.3562 82.8814 0
M  V30 23 C  27.1171 36.2859 83.2016 0
M  V30 24 N  26.2953 35.5264 82.4183 0
M  V30 25 N  26.4851 36.8560 84.2015 0
M  V30 26 C  25.1759 36.4805 84.0442 0
M  V30 27 C  25.0192 35.6467 82.9118 0
M  V30 28 C  24.0550 36.8229 84.8121 0
M  V30 29 C  22.7880 36.3658 84.4128 0
M  V30 30 C  22.6761 35.5565 83.2721 0
M  V30 31 C  23.7773 35.1576 82.5097 0
M  V30 32 C  21.5699 36.7566 85.1790 0
M  V30 33 N  21.6737 36.7207 86.5356 0
M  V30 34 C  20.5816 37.1044 87.2364 0
M  V30 35 N  19.4077 37.5302 86.7120 0
M  V30 36 C  19.3022 37.5713 85.3510 0
M  V30 37 C  20.3868 37.1707 84.5476 0
M  V30 38 N  18.0829 38.0338 84.7843 0
M  V30 39 C  17.0380 38.5981 85.6413 0
M  V30 40 C  17.9097 38.1378 83.3369 0
M  V30 41 H  25.0890 42.7056 90.4018 0
M  V30 42 H  26.6093 43.2147 89.7744 0
M  V30 43 H  28.0439 38.7796 88.6110 0
M  V30 44 H  26.3706 38.9344 88.1161 0
M  V30 45 H  27.0248 40.1985 86.0659 0
M  V30 46 H  27.9478 38.6951 86.1973 0
M  V30 47 H  28.1570 42.3767 86.8099 0
M  V30 48 H  29.8754 42.3372 87.2539 0
M  V30 49 H  28.5103 42.4586 89.3581 0
M  V30 50 H  29.3435 40.9382 89.2551 0
M  V30 51 H  30.6648 41.1216 85.3795 0
M  V30 52 H  29.3413 41.5897 83.2700 0
M  V30 53 H  27.8624 41.1614 84.1150 0
M  V30 54 H  28.8278 42.5433 84.6319 0
M  V30 55 H  28.0682 38.8356 83.8662 0
M  V30 56 H  32.6532 37.1215 83.9771 0
M  V30 57 H  32.1853 39.3421 85.0052 0
M  V30 58 H  28.8803 35.6094 82.3547 0
M  V30 59 H  26.6328 35.0702 81.5808 0
M  V30 60 H  24.1631 37.4592 85.6780 0
M  V30 61 H  21.7024 35.1958 82.9694 0
M  V30 62 H  23.6566 34.5258 81.6438 0
M  V30 63 H  20.6577 37.0802 88.3118 0
M  V30 64 H  20.3389 37.2112 83.4721 0
M  V30 65 H  17.3647 39.5572 86.0436 0
M  V30 66 H  16.1012 38.7573 85.1072 0
M  V30 67 H  16.8291 37.9477 86.4918 0
M  V30 68 H  18.6894 38.7565 82.9007 0
M  V30 69 H  17.9796 37.1568 82.8727 0
M  V30 70 H  16.9458 38.5696 83.0653 0
M  V30 71 H  29.7877 39.9185 87.1375 0
M  V30 END ATOM
M  V30 BEGIN BOND
M  V30 1 1 1 2
M  V30 2 1 2 3
M  V30 3 1 2 4
M  V30 4 1 2 5
M  V30 5 1 5 6
M  V30 6 1 5 41
M  V30 7 1 5 42
M  V30 8 2 6 7
M  V30 9 1 6 8
M  V30 10 1 8 9
M  V30 11 1 8 13
M  V30 12 1 9 10
M  V30 13 1 9 43
M  V30 14 1 9 44
M  V30 15 1 10 11
M  V30 16 1 10 45
M  V30 17 1 10 46
M  V30 18 1 11 12
M  V30 19 1 11 14
M  V30 20 1 11 71
M  V30 21 1 12 13
M  V30 22 1 12 47
M  V30 23 1 12 48
M  V30 24 1 13 49
M  V30 25 1 13 50
M  V30 26 1 14 15
M  V30 27 1 14 16
M  V30 28 1 14 51
M  V30 29 1 15 52
M  V30 30 1 15 53
M  V30 31 1 15 54
M  V30 32 2 16 17
M  V30 33 1 16 21
M  V30 34 1 17 18
M  V30 35 1 17 55
M  V30 36 2 18 19
M  V30 37 1 18 22
M  V30 38 1 19 20
M  V30 39 2 20 21
M  V30 40 1 20 56
M  V30 41 1 21 57
M  V30 42 1 22 23
M  V30 43 1 22 58
M  V30 44 1 23 24
M  V30 45 2 23 25
M  V30 46 1 24 27
M  V30 47 1 24 59
M  V30 48 1 25 26
M  V30 49 2 26 27
M  V30 50 1 26 28
M  V30 51 1 27 31
M  V30 52 2 28 29
M  V30 53 1 28 60
M  V30 54 1 29 30
M  V30 55 1 29 32
M  V30 56 2 30 31
M  V30 57 1 30 61
M  V30 58 1 31 62
M  V30 59 2 32 33
M  V30 60 1 32 37
M  V30 61 1 33 34
M  V30 62 2 34 35
M  V30 63 1 34 63
M  V30 64 1 35 36
M  V30 65 2 36 37
M  V30 66 1 36 38
M  V30 67 1 37 64
M  V30 68 1 38 39
M  V30 69 1 38 40
M  V30 70 1 39 65
M  V30 71 1 39 66
M  V30 72 1 39 67
M  V30 73 1 40 68
M  V30 74 1 40 69
M  V30 75 1 40 70
M  V30 END BOND
M  V30 END CTAB
M  END
> <s_m_entry_id>
584

> <s_m_entry_name>
result.1584

> <s_m_Source_Path>
D:\OneDrive - zju.edu.cn\DOC\A-Finished\LCK_VS\Planet\LCK-8617

> <s_m_Source_File>
glide-dock_SP_top1262_2_pv.maegz

> <i_m_Source_File_Index>
584

> <PLANET_affinity>
8.175

> <i_lp_mmshare_version>
54117

> <i_f3d_flags>
0

> <s_epik_input>
RkMoRikoRilbQ0gyXUMoPU8pTjFbQ0gyXVtDSDJdTihbQ0gyXVtDSDJdMSlbQ0BIXShbQ0gzXSljMltjSF1jKG5bY0hdW2NIXTIpW05IXWMobjMpW25IXWMoYzM0KVtjSF1bY0hdYyhbY0hdNCktYzVuW2NIXW5jKFtjSF01KU4oW0NIM10pW0NIM10=

> <s_epik_cmdline>
J2VwaWtfcHl0aG9uJywgJy1waCcsICc3LjAnLCAnLXRuJywgJzgnLCAnLW1hJywgJzUwMCcsICctaW1hZScsICc8aW5maWxlLm1hZT4nLCAnLW9tYWUnLCAnPG91dGZpbGUubWFlPic=

> <r_epik_Ionization_Penalty>
  0.1621

> <r_epik_Ionization_Penalty_Charging>
  0.1005

> <r_epik_Ionization_Penalty_Neutral>
  0.0616

> <r_epik_State_Penalty>
  0.4982

> <r_epik_Charging_Adjusted_Penalty>
0.598642

> <i_epik_Tot_Q>
1

> <i_epik_Tot_abs_Q>
1

> <s_lp_Force_Field>
S-OPLS

> <r_lp_Energy>
71.0203

> <b_lp_Chiralities_Consistent>
1

> <s_lp_Variant>
O=C(N1CCN([C@@H](C2=CC(NC3=NC4=CC=C(C5=NC=NC(N(C)C)=C5)C=C4N3)=NC=C2)C)CC1)CC...-1

> <s_i_glide_gridfile>
glide-grid_1

> <i_i_glide_lignum>
1122

> <i_i_glide_rotatable_bonds>
9

> <r_i_docking_score>
-7.90696727342294

> <r_i_glide_ligand_efficiency>
-0.197674181835574

> <r_i_glide_ligand_efficiency_sa>
-0.676036191604381

> <r_i_glide_ligand_efficiency_ln>
-1.68632342776173

> <r_i_glide_gscore>
-8.40516727342294

> <r_i_glide_lipo>
-3.37642347037557

> <r_i_glide_hbond>
-0.32

> <r_i_glide_metal>
0

> <r_i_glide_rewards>
-1.70220286338528

> <r_i_glide_evdw>
-55.4423599243164

> <r_i_glide_ecoul>
-4.21231651306152

> <r_i_glide_erotb>
0.398731017151339

> <r_i_glide_esite>
-0.0013064836383763

> <r_i_glide_emodel>
-90.2561451460683

> <r_i_glide_energy>
-59.6546764373779

> <r_i_glide_einternal>
8.07744598388672

> <i_i_glide_confnum>
144

> <i_i_glide_posenum>
138

> <r_i_glide_eff_state_penalty>
0.4982

> <r_lp_tautomer_probability>
1

> <s_m_subgroup_title>
glide-dock_SP_top1262_2_pv

> <s_m_subgroupid>
glide-dock_SP_top1262_2_pv

> <b_m_subgroup_collapsed>
0

$$$$
COC1=CC=CC2=C(NCC3=CC=CC=C3)N=C(N4C(N)=NC5=CC=CC=C45)N=C12
                    3D
 Schrodinger Suite 2021-3.
  0  0  0     0  0            999 V3000
M  V30 BEGIN CTAB
M  V30 COUNTS 50 54 0 0 0
M  V30 BEGIN ATOM
M  V30 1 C  20.5566 39.9194 86.5744 0
M  V30 2 C  19.4053 39.3090 87.0635 0
M  V30 3 C  19.2713 37.9251 87.0314 0
M  V30 4 C  20.2778 37.1174 86.5035 0
M  V30 5 O  20.0828 35.7604 86.4769 0
M  V30 6 C  20.7821 35.0185 87.4682 0
M  V30 7 C  21.4456 37.7129 85.9478 0
M  V30 8 C  21.5981 39.1346 86.0022 0
M  V30 9 N  22.3876 36.9155 85.3617 0
M  V30 10 C  23.4869 37.5195 84.8454 0
M  V30 11 N  24.4077 36.7222 84.1117 0
M  V30 12 C  24.1390 35.6443 83.2690 0
M  V30 13 N  25.1851 35.1537 82.6632 0
M  V30 14 N  22.8836 35.1567 83.0511 0
M  V30 15 C  25.7825 36.9092 84.0250 0
M  V30 16 C  26.2231 35.9239 83.1042 0
M  V30 17 C  26.6785 37.8082 84.6228 0
M  V30 18 C  28.0211 37.7098 84.2514 0
M  V30 19 C  28.4644 36.7566 83.3361 0
M  V30 20 C  27.5790 35.8454 82.7598 0
M  V30 21 N  23.7465 38.8486 84.8912 0
M  V30 22 C  22.8186 39.6512 85.4731 0
M  V30 23 N  23.1182 41.0231 85.5911 0
M  V30 24 C  24.4326 41.5852 85.2648 0
M  V30 25 C  25.5642 41.1289 86.1984 0
M  V30 26 C  25.3193 40.5629 87.4591 0
M  V30 27 C  26.3768 40.1412 88.2603 0
M  V30 28 C  27.6840 40.3047 87.8140 0
M  V30 29 C  27.9441 40.8964 86.5806 0
M  V30 30 C  26.8847 41.3135 85.7776 0
M  V30 31 H  20.6443 40.9960 86.6113 0
M  V30 32 H  18.6032 39.9140 87.4672 0
M  V30 33 H  18.3703 37.4698 87.4178 0
M  V30 34 H  20.7237 33.9569 87.2298 0
M  V30 35 H  21.8372 35.2856 87.5416 0
M  V30 36 H  20.3155 35.1560 88.4431 0
M  V30 37 H  22.1035 35.4725 83.6058 0
M  V30 38 H  22.6947 34.3937 82.4071 0
M  V30 39 H  26.3550 38.5532 85.3342 0
M  V30 40 H  28.7388 38.3916 84.6866 0
M  V30 41 H  29.5125 36.7163 83.0734 0
M  V30 42 H  27.9277 35.1121 82.0452 0
M  V30 43 H  22.3748 41.6659 85.8259 0
M  V30 44 H  24.3680 42.6742 85.2929 0
M  V30 45 H  24.6857 41.3170 84.2369 0
M  V30 46 H  24.3115 40.4303 87.8215 0
M  V30 47 H  26.1828 39.6912 89.2227 0
M  V30 48 H  28.5025 39.9763 88.4370 0
M  V30 49 H  28.9620 41.0273 86.2452 0
M  V30 50 H  27.0942 41.7677 84.8203 0
M  V30 END ATOM
M  V30 BEGIN BOND
M  V30 1 2 1 2
M  V30 2 1 1 8
M  V30 3 1 1 31
M  V30 4 1 2 3
M  V30 5 1 2 32
M  V30 6 2 3 4
M  V30 7 1 3 33
M  V30 8 1 4 5
M  V30 9 1 4 7
M  V30 10 1 5 6
M  V30 11 1 6 34
M  V30 12 1 6 35
M  V30 13 1 6 36
M  V30 14 2 7 8
M  V30 15 1 7 9
M  V30 16 1 8 22
M  V30 17 2 9 10
M  V30 18 1 10 11
M  V30 19 1 10 21
M  V30 20 1 11 12
M  V30 21 1 11 15
M  V30 22 2 12 13
M  V30 23 1 12 14
M  V30 24 1 13 16
M  V30 25 1 14 37
M  V30 26 1 14 38
M  V30 27 2 15 16
M  V30 28 1 15 17
M  V30 29 1 16 20
M  V30 30 2 17 18
M  V30 31 1 17 39
M  V30 32 1 18 19
M  V30 33 1 18 40
M  V30 34 2 19 20
M  V30 35 1 19 41
M  V30 36 1 20 42
M  V30 37 2 21 22
M  V30 38 1 22 23
M  V30 39 1 23 24
M  V30 40 1 23 43
M  V30 41 1 24 25
M  V30 42 1 24 44
M  V30 43 1 24 45
M  V30 44 2 25 26
M  V30 45 1 25 30
M  V30 46 1 26 27
M  V30 47 1 26 46
M  V30 48 2 27 28
M  V30 49 1 27 47
M  V30 50 1 28 29
M  V30 51 1 28 48
M  V30 52 2 29 30
M  V30 53 1 29 49
M  V30 54 1 30 50
M  V30 END BOND
M  V30 END CTAB
M  END
> <s_m_entry_id>
585

> <s_m_entry_name>
result.3076

> <s_m_Source_Path>
D:\OneDrive - zju.edu.cn\DOC\A-Finished\LCK_VS\Planet\LCK-8617

> <s_m_Source_File>
glide-dock_SP_top1262_2_pv.maegz

> <i_m_Source_File_Index>
585

> <PLANET_affinity>
7.251

> <i_lp_mmshare_version>
54117

> <i_f3d_flags>
0

> <s_epik_input>
W2NIXTFbY0hdW2NIXVtjSF1bY0hdYzFbQ0gyXVtOSF1jKGMoYzIzKVtjSF1bY0hdW2NIXWMyT1tDSDNdKW5jKG4zKS1uNGMoW05IMl0pbmMoYzQ1KVtjSF1bY0hdW2NIXVtjSF01

> <s_epik_cmdline>
J2VwaWtfcHl0aG9uJywgJy1waCcsICc3LjAnLCAnLXRuJywgJzgnLCAnLW1hJywgJzUwMCcsICctaW1hZScsICc8aW5maWxlLm1hZT4nLCAnLW9tYWUnLCAnPG91dGZpbGUubWFlPic=

> <r_epik_Ionization_Penalty>
  0.0652

> <r_epik_Ionization_Penalty_Charging>
  0.0000

> <r_epik_Ionization_Penalty_Neutral>
  0.0652

> <r_epik_State_Penalty>
  0.0568

> <r_epik_Charging_Adjusted_Penalty>
0.0567534

> <i_epik_Tot_Q>
0

> <i_epik_Tot_abs_Q>
0

> <s_lp_Force_Field>
S-OPLS

> <r_lp_Energy>
54.3038

> <b_lp_Chiralities_Consistent>
1

> <s_lp_Variant>
COC1=CC=CC2=C(NCC3=CC=CC=C3)N=C(N4C(N)=NC5=CC=CC=C45)N=C12-1

> <s_i_glide_gridfile>
glide-grid_1

> <i_i_glide_lignum>
2316

> <i_i_glide_rotatable_bonds>
5

> <r_i_docking_score>
-7.90656135248456

> <r_i_glide_ligand_efficiency>
-0.263552045082819

> <r_i_glide_ligand_efficiency_sa>
-0.818917480563518

> <r_i_glide_ligand_efficiency_ln>
-1.79645688817041

> <r_i_glide_gscore>
-7.96336135248456

> <r_i_glide_lipo>
-2.26051679928407

> <r_i_glide_hbond>
-0.513860501698768

> <r_i_glide_metal>
0

> <r_i_glide_rewards>
-2.3753583065028

> <r_i_glide_evdw>
-41.1235618591309

> <r_i_glide_ecoul>
-7.34173917770386

> <r_i_glide_erotb>
0.348554757567697

> <r_i_glide_esite>
-0.00474153295448888

> <r_i_glide_emodel>
-67.4186729963327

> <r_i_glide_energy>
-48.4653010368347

> <r_i_glide_einternal>
8.24323654174805

> <i_i_glide_confnum>
40

> <i_i_glide_posenum>
66

> <r_i_glide_eff_state_penalty>
0.0568

> <s_m_subgroup_title>
glide-dock_SP_top1262_2_pv

> <s_m_subgroupid>
glide-dock_SP_top1262_2_pv

> <b_m_subgroup_collapsed>
0

$$$$
CC1=C(NC(C2=CC(C3=CC=CS3)=CN=C2)=O)C=C(C(NC4=CC=C(CN5CCN(CC)CC5)C(C(F)(F)F)=C...
                    3D
 Schrodinger Suite 2021-3.
  0  0  0     0  0            999 V3000
M  V30 BEGIN CTAB
M  V30 COUNTS 76 80 0 0 0
M  V30 BEGIN ATOM
M  V30 1 S  23.3001 41.1581 92.3806 0
M  V30 2 C  24.9105 40.9006 92.9663 0
M  V30 3 C  25.8182 40.7574 91.9273 0
M  V30 4 C  25.2157 40.8453 90.6671 0
M  V30 5 C  23.8419 41.0716 90.7226 0
M  V30 6 C  22.8586 41.1954 89.6050 0
M  V30 7 C  21.7946 42.1010 89.6640 0
M  V30 8 N  20.8802 42.2416 88.6751 0
M  V30 9 C  21.0119 41.4646 87.5710 0
M  V30 10 C  22.9795 40.4106 88.4483 0
M  V30 11 C  22.0397 40.5269 87.4053 0
M  V30 12 C  22.1097 39.6903 86.1481 0
M  V30 13 O  21.5830 40.0872 85.1051 0
M  V30 14 N  22.7358 38.4966 86.2564 0
M  V30 15 C  22.8329 37.5283 85.2421 0
M  V30 16 C  21.7100 36.9123 84.6487 0
M  V30 17 C  20.2812 37.2059 85.0919 0
M  V30 18 C  24.1201 37.1519 84.8401 0
M  V30 19 C  24.3119 36.2045 83.8163 0
M  V30 20 C  23.1860 35.6012 83.2432 0
M  V30 21 C  21.9066 35.9569 83.6515 0
M  V30 22 C  25.6853 35.8211 83.3142 0
M  V30 23 O  25.8280 34.7570 82.7097 0
M  V30 24 N  26.6747 36.7114 83.5467 0
M  V30 25 C  28.0544 36.5897 83.2856 0
M  V30 26 C  28.6106 35.6139 82.4540 0
M  V30 27 C  29.9822 35.5247 82.2930 0
M  V30 28 C  30.8459 36.3768 82.9754 0
M  V30 29 C  30.3122 37.3707 83.8240 0
M  V30 30 C  31.2112 38.3125 84.6323 0
M  V30 31 F  31.9808 39.0187 83.8051 0
M  V30 32 F  30.5145 39.1693 85.3811 0
M  V30 33 F  31.9915 37.5942 85.4433 0
M  V30 34 C  28.9133 37.4727 83.9460 0
M  V30 35 C  32.3383 36.1182 82.7967 0
M  V30 36 N  32.8012 36.2875 81.3297 0 CHG=1
M  V30 37 C  33.9638 35.3311 80.9810 0
M  V30 38 C  34.3562 35.5501 79.5046 0
M  V30 39 N  34.8227 36.9294 79.3201 0 CFG=2
M  V30 40 C  35.3691 37.1181 77.9738 0
M  V30 41 C  36.4086 38.2475 77.9944 0
M  V30 42 C  33.7086 37.8606 79.5762 0
M  V30 43 C  33.2148 37.7500 81.0341 0
M  V30 44 H  25.1054 40.8636 94.0282 0
M  V30 45 H  26.8756 40.5898 92.0755 0
M  V30 46 H  25.7642 40.7484 89.7403 0
M  V30 47 H  21.6658 42.7534 90.5152 0
M  V30 48 H  20.2577 41.6213 86.8100 0
M  V30 49 H  23.8031 39.7159 88.3739 0
M  V30 50 H  23.2233 38.2951 87.1156 0
M  V30 51 H  19.5925 36.4145 84.7928 0
M  V30 52 H  20.2237 37.2803 86.1794 0
M  V30 53 H  19.9299 38.1470 84.6658 0
M  V30 54 H  24.9692 37.6176 85.3191 0
M  V30 55 H  23.2854 34.8496 82.4687 0
M  V30 56 H  21.0667 35.4649 83.1874 0
M  V30 57 H  26.4035 37.5524 84.0332 0
M  V30 58 H  28.0072 34.8884 81.9303 0
M  V30 59 H  30.3747 34.7522 81.6488 0
M  V30 60 H  28.4890 38.2239 84.6010 0
M  V30 61 H  32.5407 35.0795 83.0686 0
M  V30 62 H  32.9949 36.7369 83.4093 0
M  V30 63 H  34.7852 35.5334 81.6722 0
M  V30 64 H  33.5946 34.3163 81.1391 0
M  V30 65 H  33.5205 35.3209 78.8408 0
M  V30 66 H  35.1544 34.8521 79.2511 0
M  V30 67 H  34.5725 37.3276 77.2526 0
M  V30 68 H  35.8683 36.2120 77.6241 0
M  V30 69 H  36.7407 38.4905 76.9854 0
M  V30 70 H  37.2843 37.9641 78.5790 0
M  V30 71 H  36.0068 39.1546 78.4439 0
M  V30 72 H  34.0270 38.8872 79.3946 0
M  V30 73 H  32.8847 37.6832 78.8874 0
M  V30 74 H  33.9905 38.0323 81.7484 0
M  V30 75 H  32.3285 38.3646 81.2024 0
M  V30 76 H  32.0308 36.0452 80.7140 0
M  V30 END ATOM
M  V30 BEGIN BOND
M  V30 1 1 1 2
M  V30 2 1 1 5
M  V30 3 2 2 3
M  V30 4 1 2 44
M  V30 5 1 3 4
M  V30 6 1 3 45
M  V30 7 2 4 5
M  V30 8 1 4 46
M  V30 9 1 5 6
M  V30 10 2 6 7
M  V30 11 1 6 10
M  V30 12 1 7 8
M  V30 13 1 7 47
M  V30 14 2 8 9
M  V30 15 1 9 11
M  V30 16 1 9 48
M  V30 17 2 10 11
M  V30 18 1 10 49
M  V30 19 1 11 12
M  V30 20 2 12 13
M  V30 21 1 12 14
M  V30 22 1 14 15
M  V30 23 1 14 50
M  V30 24 2 15 16
M  V30 25 1 15 18
M  V30 26 1 16 17
M  V30 27 1 16 21
M  V30 28 1 17 51
M  V30 29 1 17 52
M  V30 30 1 17 53
M  V30 31 2 18 19
M  V30 32 1 18 54
M  V30 33 1 19 20
M  V30 34 1 19 22
M  V30 35 2 20 21
M  V30 36 1 20 55
M  V30 37 1 21 56
M  V30 38 2 22 23
M  V30 39 1 22 24
M  V30 40 1 24 25
M  V30 41 1 24 57
M  V30 42 2 25 26
M  V30 43 1 25 34
M  V30 44 1 26 27
M  V30 45 1 26 58
M  V30 46 2 27 28
M  V30 47 1 27 59
M  V30 48 1 28 29
M  V30 49 1 28 35
M  V30 50 1 29 30
M  V30 51 2 29 34
M  V30 52 1 30 31
M  V30 53 1 30 32
M  V30 54 1 30 33
M  V30 55 1 34 60
M  V30 56 1 35 36
M  V30 57 1 35 61
M  V30 58 1 35 62
M  V30 59 1 36 37
M  V30 60 1 36 43
M  V30 61 1 36 76
M  V30 62 1 37 38
M  V30 63 1 37 63
M  V30 64 1 37 64
M  V30 65 1 38 39
M  V30 66 1 38 65
M  V30 67 1 38 66
M  V30 68 1 39 40
M  V30 69 1 39 42
M  V30 70 1 40 41
M  V30 71 1 40 67
M  V30 72 1 40 68
M  V30 73 1 41 69
M  V30 74 1 41 70
M  V30 75 1 41 71
M  V30 76 1 42 43
M  V30 77 1 42 72
M  V30 78 1 42 73
M  V30 79 1 43 74
M  V30 80 1 43 75
M  V30 END BOND
M  V30 END CTAB
M  END
> <s_m_entry_id>
586

> <s_m_entry_name>
result.1700

> <s_m_Source_Path>
D:\OneDrive - zju.edu.cn\DOC\A-Finished\LCK_VS\Planet\LCK-8617

> <s_m_Source_File>
glide-dock_SP_top1262_2_pv.maegz

> <i_m_Source_File_Index>
586

> <PLANET_affinity>
8.182

> <i_lp_mmshare_version>
54117

> <i_f3d_flags>
0

> <s_epik_input>
W2NIXTFbY0hdW2NIXXNjMS1jMltjSF1uW2NIXWMoW2NIXTIpQyg9TylbTkhdYzNjKFtDSDNdKVtjSF1bY0hdYyhbY0hdMylDKD1PKVtOSF1jNFtjSF1bY0hdYyhjKEMoRikoRilGKVtjSF00KVtDSDJdTjVbQ0gyXVtDSDJdTihbQ0gyXVtDSDNdKVtDSDJdW0NIMl01

> <s_epik_cmdline>
J2VwaWtfcHl0aG9uJywgJy1waCcsICc3LjAnLCAnLXRuJywgJzgnLCAnLW1hJywgJzUwMCcsICctaW1hZScsICc8aW5maWxlLm1hZT4nLCAnLW9tYWUnLCAnPG91dGZpbGUubWFlPic=

> <r_epik_Ionization_Penalty>
  0.0150

> <r_epik_Ionization_Penalty_Charging>
  0.0136

> <r_epik_Ionization_Penalty_Neutral>
  0.0013

> <r_epik_State_Penalty>
  0.1130

> <r_epik_Charging_Adjusted_Penalty>
0.126653

> <i_epik_Tot_Q>
1

> <i_epik_Tot_abs_Q>
1

> <s_lp_Force_Field>
S-OPLS

> <r_lp_Energy>
81.8899

> <b_lp_Chiralities_Consistent>
1

> <s_lp_Variant>
CC1=C(NC(C2=CC(C3=CC=CS3)=CN=C2)=O)C=C(C(NC4=CC=C(CN5CCN(CC)CC5)C(C(F)(F)F)=C...-1

> <s_i_glide_gridfile>
glide-grid_1

> <i_i_glide_lignum>
1113

> <i_i_glide_rotatable_bonds>
11

> <r_i_docking_score>
-7.90394189583108

> <r_i_glide_ligand_efficiency>
-0.18381260222863

> <r_i_glide_ligand_efficiency_sa>
-0.643968713315053

> <r_i_glide_ligand_efficiency_ln>
-1.66007344866237

> <r_i_glide_gscore>
-8.01694189583108

> <r_i_glide_lipo>
-3.56395235850249

> <r_i_glide_hbond>
-0.264890075313092

> <r_i_glide_metal>
0

> <r_i_glide_rewards>
-1.04986306212427

> <r_i_glide_evdw>
-52.8384857177734

> <r_i_glide_ecoul>
-5.82266139984131

> <r_i_glide_erotb>
0.387678767244324

> <r_i_glide_esite>
-0.010591671270682

> <r_i_glide_emodel>
-84.4993410226989

> <r_i_glide_energy>
-58.6611471176147

> <r_i_glide_einternal>
15.0960483551025

> <i_i_glide_confnum>
18

> <i_i_glide_posenum>
341

> <r_i_glide_eff_state_penalty>
0.113

> <s_m_subgroup_title>
glide-dock_SP_top1262_2_pv

> <s_m_subgroupid>
glide-dock_SP_top1262_2_pv

> <b_m_subgroup_collapsed>
0

$$$$
OC[C@H]([C@H]([C@@H]([C@H]1O)O)O[C@H]2O[C@@H]([C@H]([C@@H]([C@H]2O)O)O)CO)O[C...
                    3D
 Schrodinger Suite 2021-3.
  0  0  0     0  0            999 V3000
M  V30 BEGIN CTAB
M  V30 COUNTS 157 160 0 0 0
M  V30 BEGIN ATOM
M  V30 1 O  26.9161 49.5992 87.3896 0
M  V30 2 C  25.5153 49.8113 87.3398 0 CFG=2
M  V30 3 C  24.8505 50.0013 88.7191 0 CFG=1
M  V30 4 O  25.4129 51.0846 89.4410 0
M  V30 5 C  23.3298 50.1963 88.5451 0 CFG=2
M  V30 6 O  22.6730 50.3165 89.7969 0
M  V30 7 C  22.7568 49.0386 87.6896 0 CFG=1
M  V30 8 C  21.2441 49.1207 87.4178 0
M  V30 9 O  20.8829 50.3570 86.8443 0
M  V30 10 O  23.4426 48.9321 86.4305 0
M  V30 11 C  24.8243 48.6953 86.5335 0 CFG=2
M  V30 12 O  25.0614 47.4565 87.1473 0
M  V30 13 C  25.1098 46.3169 86.2756 0 CFG=2
M  V30 14 C  24.3774 45.0841 86.9018 0 CFG=1
M  V30 15 C  22.8413 45.2982 87.0032 0
M  V30 16 O  22.0859 44.1747 87.4398 0
M  V30 17 C  26.6014 46.0025 85.9599 0 CFG=2
M  V30 18 O  27.2839 47.0312 85.2443 0
M  V30 19 C  26.7319 44.6583 85.2124 0 CFG=1
M  V30 20 O  28.0933 44.3065 85.0008 0
M  V30 21 C  25.9965 43.5861 86.0161 0 CFG=1
M  V30 22 O  24.6339 43.9313 86.0810 0
M  V30 23 O  26.1582 42.3864 85.3269 0
M  V30 24 C  25.7813 41.2103 86.0351 0
M  V30 25 C  27.0195 40.3207 86.3975 0
M  V30 26 C  27.7830 39.9817 85.0760 0
M  V30 27 C  28.9036 38.9244 85.1624 0
M  V30 28 C  29.4474 38.5095 83.7820 0
M  V30 29 C  30.4758 37.3687 83.8675 0
M  V30 30 C  30.9555 36.8879 82.4825 0
M  V30 31 C  31.9736 35.7322 82.5405 0
M  V30 32 C  33.3636 36.1527 83.0645 0
M  V30 33 C  34.3508 34.9799 83.1762 0
M  V30 34 C  35.7823 35.3968 83.5582 0
M  V30 35 C  35.8929 36.1287 84.9090 0
M  V30 36 C  27.9431 41.1299 87.3699 0
M  V30 37 C  27.3169 41.5183 88.7386 0
M  V30 38 C  28.1106 42.5606 89.5552 0
M  V30 39 C  29.5842 42.1946 89.8388 0
M  V30 40 C  30.0374 42.5145 91.2767 0
M  V30 41 C  31.5178 42.1687 91.5352 0
M  V30 42 C  31.9171 42.2865 93.0213 0
M  V30 43 C  33.3336 41.7713 93.3502 0
M  V30 44 C  33.4840 40.2394 93.2663 0
M  V30 45 C  34.8366 39.7461 93.7901 0
M  V30 46 C  26.5846 39.0018 87.1340 0
M  V30 47 O  26.0800 37.9116 86.3515 0
M  V30 48 C  24.8618 38.1107 85.7024 0 CFG=2
M  V30 49 O  23.9334 38.6728 86.5946 0
M  V30 50 C  22.7369 39.1157 85.9647 0 CFG=2
M  V30 51 C  21.9109 39.9109 87.0115 0
M  V30 52 O  22.5930 41.0627 87.4794 0
M  V30 53 C  22.0027 37.8514 85.4738 0 CFG=2
M  V30 54 C  22.9134 36.9487 84.5984 0 CFG=2
M  V30 55 O  22.3462 35.6886 84.3106 0
M  V30 56 C  24.3248 36.7578 85.2261 0 CFG=1
M  V30 57 O  25.2199 36.0967 84.3314 0
M  V30 58 O  20.7559 38.2923 84.8931 0
M  V30 59 C  19.8193 37.3014 84.5679 0 CFG=1
M  V30 60 O  19.6917 36.3461 85.5623 0
M  V30 61 C  19.3158 36.8397 86.8454 0 CFG=2
M  V30 62 C  19.5279 35.7376 87.8951 0
M  V30 63 O  20.7289 35.0186 87.6441 0
M  V30 64 C  17.9017 37.4330 86.7715 0 CFG=1
M  V30 65 O  17.6174 37.9569 88.0428 0
M  V30 66 C  17.8592 38.4912 85.6411 0 CFG=2
M  V30 67 O  16.5570 38.9774 85.3961 0
M  V30 68 C  18.4317 37.8903 84.3430 0 CFG=1
M  V30 69 O  18.3816 38.7549 83.2469 0
M  V30 70 H  27.0834 48.8274 87.9325 0
M  V30 71 H  25.3889 50.7237 86.7610 0
M  V30 72 H  25.0399 49.1062 89.3164 0
M  V30 73 H  24.7881 51.3161 90.1384 0
M  V30 74 H  23.1573 51.1400 88.0273 0
M  V30 75 H  21.7465 50.5232 89.6281 0
M  V30 76 H  22.9223 48.1265 88.2601 0
M  V30 77 H  20.9389 48.3072 86.7591 0
M  V30 78 H  20.6774 48.9970 88.3415 0
M  V30 79 H  20.0002 50.2494 86.4571 0
M  V30 80 H  25.1706 48.6984 85.4971 0
M  V30 81 H  24.5779 46.5407 85.3466 0
M  V30 82 H  24.7626 44.9021 87.9104 0
M  V30 83 H  22.6222 46.1124 87.6879 0
M  V30 84 H  22.4459 45.6189 86.0449 0
M  V30 85 H  21.1500 44.3571 87.2173 0
M  V30 86 H  27.1387 45.9086 86.9084 0
M  V30 87 H  27.8107 46.6243 84.5402 0
M  V30 88 H  26.2537 44.7228 84.2304 0
M  V30 89 H  28.6701 44.9603 85.4127 0
M  V30 90 H  26.3735 43.5032 87.0373 0
M  V30 91 H  25.1162 40.7322 85.3285 0
M  V30 92 H  25.1448 41.4161 86.8960 0
M  V30 93 H  27.0648 39.6585 84.3175 0
M  V30 94 H  28.2168 40.8984 84.6672 0
M  V30 95 H  29.7182 39.2732 85.7948 0
M  V30 96 H  28.5159 38.0242 85.6408 0
M  V30 97 H  28.6170 38.1857 83.1497 0
M  V30 98 H  29.8919 39.3731 83.2820 0
M  V30 99 H  31.3259 37.6982 84.4694 0
M  V30 100 H  30.0385 36.5236 84.4054 0
M  V30 101 H  30.0898 36.5630 81.8998 0
M  V30 102 H  31.3930 37.7266 81.9318 0
M  V30 103 H  31.5710 34.9262 83.1600 0
M  V30 104 H  32.0844 35.3129 81.5365 0
M  V30 105 H  33.7709 36.9189 82.3996 0
M  V30 106 H  33.2557 36.6217 84.0392 0
M  V30 107 H  33.9751 34.2684 83.9068 0
M  V30 108 H  34.3830 34.4452 82.2273 0
M  V30 109 H  36.4025 34.5042 83.5982 0
M  V30 110 H  36.2068 36.0253 82.7726 0
M  V30 111 H  36.9367 36.2864 85.1832 0
M  V30 112 H  35.4079 37.1086 84.8748 0
M  V30 113 H  35.4229 35.5572 85.7113 0
M  V30 114 H  28.8573 40.5615 87.5511 0
M  V30 115 H  28.2841 42.0323 86.8657 0
M  V30 116 H  26.3186 41.9334 88.6095 0
M  V30 117 H  27.1353 40.6275 89.3418 0
M  V30 118 H  28.0785 43.5203 89.0425 0
M  V30 119 H  27.5789 42.7248 90.4939 0
M  V30 120 H  29.7471 41.1376 89.6476 0
M  V30 121 H  30.2283 42.7146 89.1243 0
M  V30 122 H  29.8710 43.5699 91.4958 0
M  V30 123 H  29.4107 41.9602 91.9770 0
M  V30 124 H  31.7153 41.1590 91.1804 0
M  V30 125 H  32.1550 42.8193 90.9331 0
M  V30 126 H  31.8415 43.3331 93.3197 0
M  V30 127 H  31.2060 41.7459 93.6435 0
M  V30 128 H  34.0624 42.2572 92.6966 0
M  V30 129 H  33.5826 42.0940 94.3581 0
M  V30 130 H  32.6858 39.7543 93.8322 0
M  V30 131 H  33.3628 39.9145 92.2330 0
M  V30 132 H  34.9460 38.6723 93.6459 0
M  V30 133 H  35.6629 40.2315 93.2666 0
M  V30 134 H  34.9527 39.9551 94.8535 0
M  V30 135 H  25.8817 39.2302 87.9390 0
M  V30 136 H  27.4511 38.5903 87.6577 0
M  V30 137 H  25.0167 38.7673 84.8510 0
M  V30 138 H  22.9470 39.7766 85.1227 0
M  V30 139 H  20.9529 40.2223 86.5967 0
M  V30 140 H  21.6906 39.2864 87.8750 0
M  V30 141 H  22.4301 41.8109 86.8971 0
M  V30 142 H  21.8220 37.2552 86.3639 0
M  V30 143 H  22.9867 37.4453 83.6443 0
M  V30 144 H  23.0497 35.0964 84.0234 0
M  V30 145 H  24.2396 36.1215 86.1074 0
M  V30 146 H  25.2819 36.6124 83.5242 0
M  V30 147 H  20.1835 36.7590 83.6941 0
M  V30 148 H  19.9624 37.6621 87.1497 0
M  V30 149 H  18.6790 35.0687 88.0073 0
M  V30 150 H  19.6175 36.2527 88.8424 0
M  V30 151 H  20.6357 34.5546 86.8035 0
M  V30 152 H  17.1673 36.6498 86.5704 0
M  V30 153 H  16.8835 38.5755 87.9556 0
M  V30 154 H  18.4597 39.3501 85.9333 0
M  V30 155 H  16.5280 39.2552 84.4779 0
M  V30 156 H  17.7931 37.0636 84.0420 0
M  V30 157 H  18.6569 38.2678 82.4641 0
M  V30 END ATOM
M  V30 BEGIN BOND
M  V30 1 1 1 2
M  V30 2 1 1 70
M  V30 3 1 2 3
M  V30 4 1 2 11
M  V30 5 1 2 71
M  V30 6 1 3 4
M  V30 7 1 3 5
M  V30 8 1 3 72
M  V30 9 1 4 73
M  V30 10 1 5 6
M  V30 11 1 5 7
M  V30 12 1 5 74
M  V30 13 1 6 75
M  V30 14 1 7 8
M  V30 15 1 7 10
M  V30 16 1 7 76
M  V30 17 1 8 9
M  V30 18 1 8 77
M  V30 19 1 8 78
M  V30 20 1 9 79
M  V30 21 1 10 11
M  V30 22 1 11 12
M  V30 23 1 11 80
M  V30 24 1 12 13
M  V30 25 1 13 14
M  V30 26 1 13 17
M  V30 27 1 13 81
M  V30 28 1 14 15
M  V30 29 1 14 22
M  V30 30 1 14 82
M  V30 31 1 15 16
M  V30 32 1 15 83
M  V30 33 1 15 84
M  V30 34 1 16 85
M  V30 35 1 17 18
M  V30 36 1 17 19
M  V30 37 1 17 86
M  V30 38 1 18 87
M  V30 39 1 19 20
M  V30 40 1 19 21
M  V30 41 1 19 88
M  V30 42 1 20 89
M  V30 43 1 21 22
M  V30 44 1 21 23
M  V30 45 1 21 90
M  V30 46 1 23 24
M  V30 47 1 24 25
M  V30 48 1 24 91
M  V30 49 1 24 92
M  V30 50 1 25 26
M  V30 51 1 25 36
M  V30 52 1 25 46
M  V30 53 1 26 27
M  V30 54 1 26 93
M  V30 55 1 26 94
M  V30 56 1 27 28
M  V30 57 1 27 95
M  V30 58 1 27 96
M  V30 59 1 28 29
M  V30 60 1 28 97
M  V30 61 1 28 98
M  V30 62 1 29 30
M  V30 63 1 29 99
M  V30 64 1 29 100
M  V30 65 1 30 31
M  V30 66 1 30 101
M  V30 67 1 30 102
M  V30 68 1 31 32
M  V30 69 1 31 103
M  V30 70 1 31 104
M  V30 71 1 32 33
M  V30 72 1 32 105
M  V30 73 1 32 106
M  V30 74 1 33 34
M  V30 75 1 33 107
M  V30 76 1 33 108
M  V30 77 1 34 35
M  V30 78 1 34 109
M  V30 79 1 34 110
M  V30 80 1 35 111
M  V30 81 1 35 112
M  V30 82 1 35 113
M  V30 83 1 36 37
M  V30 84 1 36 114
M  V30 85 1 36 115
M  V30 86 1 37 38
M  V30 87 1 37 116
M  V30 88 1 37 117
M  V30 89 1 38 39
M  V30 90 1 38 118
M  V30 91 1 38 119
M  V30 92 1 39 40
M  V30 93 1 39 120
M  V30 94 1 39 121
M  V30 95 1 40 41
M  V30 96 1 40 122
M  V30 97 1 40 123
M  V30 98 1 41 42
M  V30 99 1 41 124
M  V30 100 1 41 125
M  V30 101 1 42 43
M  V30 102 1 42 126
M  V30 103 1 42 127
M  V30 104 1 43 44
M  V30 105 1 43 128
M  V30 106 1 43 129
M  V30 107 1 44 45
M  V30 108 1 44 130
M  V30 109 1 44 131
M  V30 110 1 45 132
M  V30 111 1 45 133
M  V30 112 1 45 134
M  V30 113 1 46 47
M  V30 114 1 46 135
M  V30 115 1 46 136
M  V30 116 1 47 48
M  V30 117 1 48 49
M  V30 118 1 48 56
M  V30 119 1 48 137
M  V30 120 1 49 50
M  V30 121 1 50 51
M  V30 122 1 50 53
M  V30 123 1 50 138
M  V30 124 1 51 52
M  V30 125 1 51 139
M  V30 126 1 51 140
M  V30 127 1 52 141
M  V30 128 1 53 54
M  V30 129 1 53 58
M  V30 130 1 53 142
M  V30 131 1 54 55
M  V30 132 1 54 56
M  V30 133 1 54 143
M  V30 134 1 55 144
M  V30 135 1 56 57
M  V30 136 1 56 145
M  V30 137 1 57 146
M  V30 138 1 58 59
M  V30 139 1 59 60
M  V30 140 1 59 68
M  V30 141 1 59 147
M  V30 142 1 60 61
M  V30 143 1 61 62
M  V30 144 1 61 64
M  V30 145 1 61 148
M  V30 146 1 62 63
M  V30 147 1 62 149
M  V30 148 1 62 150
M  V30 149 1 63 151
M  V30 150 1 64 65
M  V30 151 1 64 66
M  V30 152 1 64 152
M  V30 153 1 65 153
M  V30 154 1 66 67
M  V30 155 1 66 68
M  V30 156 1 66 154
M  V30 157 1 67 155
M  V30 158 1 68 69
M  V30 159 1 68 156
M  V30 160 1 69 157
M  V30 END BOND
M  V30 END CTAB
M  END
> <s_m_entry_id>
587

> <s_m_entry_name>
result.3195

> <s_m_Source_Path>
D:\OneDrive - zju.edu.cn\DOC\A-Finished\LCK_VS\Planet\LCK-8617

> <s_m_Source_File>
glide-dock_SP_top1262_2_pv.maegz

> <i_m_Source_File_Index>
587

> <PLANET_affinity>
8.968

> <i_lp_mmshare_version>
54117

> <i_f3d_flags>
0

> <s_epik_input>
W09IXVtDQEBIXTFbQ0BASF0oW09IXSlbQ0BIXShbT0hdKVtDQEBIXShbQ0gyXVtPSF0pT1tDQEBIXTFPW0NAQEhdMltDQEBIXShbQ0gyXVtPSF0pT1tDQEhdKFtDQEhdKFtPSF0pW0NASF0yW09IXSlPW0NIMl1DKFtDSDJdW0NIMl1bQ0gyXVtDSDJdW0NIMl1bQ0gyXVtDSDJdW0NIMl1bQ0gyXVtDSDNdKShbQ0gyXVtDSDJdW0NIMl1bQ0gyXVtDSDJdW0NIMl1bQ0gyXVtDSDJdW0NIMl1bQ0gzXSlbQ0gyXU9bQ0BASF0zT1tDQEhdKFtDSDJdW09IXSlbQ0BIXShbQ0BIXShbT0hdKVtDQEhdM1tPSF0pT1tDQEhdNE9bQ0BIXShbQ0gyXVtPSF0pW0NAQEhdKFtPSF0pW0NASF0oW09IXSlbQ0BIXTRbT0hd

> <s_epik_cmdline>
J2VwaWtfcHl0aG9uJywgJy1waCcsICc3LjAnLCAnLXRuJywgJzgnLCAnLW1hJywgJzUwMCcsICctaW1hZScsICc8aW5maWxlLm1hZT4nLCAnLW9tYWUnLCAnPG91dGZpbGUubWFlPic=

> <r_epik_Ionization_Penalty>
  0.0000

> <r_epik_Ionization_Penalty_Charging>
  0.0000

> <r_epik_Ionization_Penalty_Neutral>
  0.0000

> <r_epik_State_Penalty>
  0.0000

> <r_epik_Charging_Adjusted_Penalty>
0

> <i_epik_Tot_Q>
0

> <i_epik_Tot_abs_Q>
0

> <s_epik_Chemistry_Notes>
This compound contains an acetal/aminal-like group ( X-CH(R)-Y where X, Y are N, S, or O) that may be acid/base labile, releasing an aldehyde.

> <s_lp_Force_Field>
S-OPLS

> <r_lp_Energy>
51.7387

> <b_lp_Chiralities_Consistent>
1

> <s_lp_Variant>
OC[C@H]([C@H]([C@@H]([C@H]1O)O)O[C@H]2O[C@@H]([C@H]([C@@H]([C@H]2O)O)O)CO)O[C...-1

> <s_i_glide_gridfile>
glide-grid_1

> <i_i_glide_lignum>
529

> <i_i_glide_rotatable_bonds>
46

> <r_i_docking_score>
-7.90330644129918

> <r_i_glide_ligand_efficiency>
-0.114540673062307

> <r_i_glide_ligand_efficiency_sa>
-0.469796121534478

> <r_i_glide_ligand_efficiency_ln>
-1.50996286268869

> <r_i_glide_gscore>
-7.90330644129918

> <r_i_glide_lipo>
-2.6717963085457

> <r_i_glide_hbond>
-0.24153896448489

> <r_i_glide_metal>
0

> <r_i_glide_rewards>
-0.937519742756439

> <r_i_glide_evdw>
-47.8098106384277

> <r_i_glide_ecoul>
-13.9451789855957

> <r_i_glide_erotb>
0.438786350600073

> <r_i_glide_esite>
-0.00897039635147788

> <r_i_glide_emodel>
-87.4338492061166

> <r_i_glide_energy>
-61.7549896240234

> <r_i_glide_einternal>
24.0720882415771

> <i_i_glide_confnum>
224

> <i_i_glide_posenum>
325

> <r_i_glide_eff_state_penalty>
0

> <r_lp_tautomer_probability>
1

> <s_m_subgroup_title>
glide-dock_SP_top1262_2_pv

> <s_m_subgroupid>
glide-dock_SP_top1262_2_pv

> <b_m_subgroup_collapsed>
0

$$$$
FC1=C(COC2=CC=C(C3=NC4=CC=C(C(NC(C)C)=N)C=C4N3)C=C2)C=CC=C1COC5=CC=C(C6=NC7=C...
                    3D
 Schrodinger Suite 2021-3.
  0  0  0     0  0            999 V3000
M  V30 BEGIN CTAB
M  V30 COUNTS 96 102 0 0 0
M  V30 BEGIN ATOM
M  V30 1 C  32.0716 42.0051 87.5329 0
M  V30 2 C  30.9560 42.6938 86.7220 0
M  V30 3 C  30.6585 41.9031 85.4327 0
M  V30 4 N  31.2915 44.1046 86.4452 0
M  V30 5 C  30.4875 45.0854 86.0042 0
M  V30 6 N  30.9681 46.3009 85.7551 0 CHG=1
M  V30 7 C  29.0497 44.8750 85.7792 0
M  V30 8 C  28.4829 45.1376 84.5172 0
M  V30 9 C  27.1426 44.8831 84.2168 0
M  V30 10 C  28.2292 44.3842 86.8065 0
M  V30 11 C  26.9000 44.0579 86.5169 0
M  V30 12 C  26.3772 44.3048 85.2299 0
M  V30 13 N  25.9675 43.4660 87.3188 0
M  V30 14 C  24.9095 43.2949 86.5589 0
M  V30 15 N  25.0861 43.8335 85.3002 0
M  V30 16 C  23.6952 42.5319 86.9992 0
M  V30 17 C  23.7034 41.8910 88.2453 0
M  V30 18 C  22.6130 41.1365 88.6573 0
M  V30 19 C  22.5664 42.4096 86.1789 0
M  V30 20 C  21.4801 41.6389 86.5911 0
M  V30 21 C  21.5002 40.9967 87.8356 0
M  V30 22 O  20.4827 40.2147 88.3370 0
M  V30 23 C  19.3323 39.9068 87.5458 0
M  V30 24 C  19.6089 38.8692 86.4585 0
M  V30 25 C  20.6309 37.9105 86.5710 0
M  V30 26 F  21.4198 37.8674 87.6683 0
M  V30 27 C  18.7789 38.8560 85.3326 0
M  V30 28 C  18.9812 37.9283 84.3155 0
M  V30 29 C  20.0100 36.9977 84.4261 0
M  V30 30 C  20.8342 36.9719 85.5528 0
M  V30 31 C  21.8976 35.8875 85.6890 0
M  V30 32 O  22.4843 35.5748 84.4174 0
M  V30 33 C  23.7702 35.9916 84.1218 0
M  V30 34 C  24.4910 36.9418 84.8600 0
M  V30 35 C  25.8228 37.2099 84.5514 0
M  V30 36 C  26.4562 36.5407 83.4990 0
M  V30 37 C  25.7110 35.6540 82.7134 0
M  V30 38 C  24.3785 35.3890 83.0201 0
M  V30 39 C  27.9171 36.7447 83.2431 0
M  V30 40 N  28.6092 37.7887 83.6448 0
M  V30 41 N  28.7074 35.8160 82.6009 0
M  V30 42 C  29.9970 36.2870 82.5986 0
M  V30 43 C  29.8986 37.5367 83.2468 0
M  V30 44 C  31.2039 35.7815 82.1169 0
M  V30 45 C  32.3562 36.5792 82.2622 0
M  V30 46 C  32.2549 37.8292 82.9035 0
M  V30 47 C  31.0475 38.3215 83.4044 0
M  V30 48 C  33.6515 36.1164 81.7364 0
M  V30 49 N  34.7012 36.1422 82.5611 0 CHG=1
M  V30 50 N  33.6818 35.6916 80.4619 0
M  V30 51 C  34.8170 35.1809 79.6779 0
M  V30 52 C  35.5283 36.3162 78.9173 0
M  V30 53 C  34.3546 34.0698 78.7116 0
M  V30 54 H  31.7880 40.9848 87.7925 0
M  V30 55 H  32.2752 42.5247 88.4720 0
M  V30 56 H  33.0092 41.9456 86.9728 0
M  V30 57 H  30.0628 42.7023 87.3445 0
M  V30 58 H  30.3468 40.8839 85.6644 0
M  V30 59 H  29.8561 42.3533 84.8431 0
M  V30 60 H  31.5399 41.8394 84.7899 0
M  V30 61 H  32.2624 44.3583 86.5465 0
M  V30 62 H  30.3347 47.0017 85.3968 0
M  V30 63 H  29.1235 45.5111 83.7293 0
M  V30 64 H  26.7424 45.0702 83.2313 0
M  V30 65 H  28.6281 44.2040 87.7939 0
M  V30 66 H  24.3854 43.8184 84.5735 0
M  V30 67 H  24.5615 41.9645 88.8981 0
M  V30 68 H  22.6421 40.6393 89.6154 0
M  V30 69 H  22.5191 42.9029 85.2175 0
M  V30 70 H  20.6258 41.5566 85.9395 0
M  V30 71 H  18.5749 39.4797 88.2057 0
M  V30 72 H  18.8817 40.8154 87.1384 0
M  V30 73 H  17.9611 39.5566 85.2553 0
M  V30 74 H  18.3353 37.9213 83.4495 0
M  V30 75 H  20.1585 36.2722 83.6438 0
M  V30 76 H  22.6264 36.1086 86.4692 0
M  V30 77 H  21.3967 34.9876 86.0440 0
M  V30 78 H  24.0453 37.4720 85.6865 0
M  V30 79 H  26.3718 37.9149 85.1593 0
M  V30 80 H  26.1719 35.1503 81.8759 0
M  V30 81 H  23.8154 34.6791 82.4291 0
M  V30 82 H  28.3553 34.9509 82.2170 0
M  V30 83 H  31.2486 34.8104 81.6432 0
M  V30 84 H  33.1391 38.4419 83.0041 0
M  V30 85 H  30.9962 39.2845 83.8908 0
M  V30 86 H  35.6024 35.8087 82.2537 0
M  V30 87 H  32.7834 35.6847 79.9965 0
M  V30 88 H  35.5113 34.7373 80.3939 0
M  V30 89 H  36.3999 35.9408 78.3821 0
M  V30 90 H  34.8710 36.7821 78.1769 0
M  V30 91 H  35.8808 37.1014 79.5898 0
M  V30 92 H  35.1960 33.6613 78.1514 0
M  V30 93 H  33.8942 33.2341 79.2449 0
M  V30 94 H  33.6257 34.4324 77.9816 0
M  V30 95 H  31.9632 46.4655 85.7452 0
M  V30 96 H  34.5706 36.4391 83.5197 0
M  V30 END ATOM
M  V30 BEGIN BOND
M  V30 1 1 1 2
M  V30 2 1 1 54
M  V30 3 1 1 55
M  V30 4 1 1 56
M  V30 5 1 2 3
M  V30 6 1 2 4
M  V30 7 1 2 57
M  V30 8 1 3 58
M  V30 9 1 3 59
M  V30 10 1 3 60
M  V30 11 1 4 5
M  V30 12 1 4 61
M  V30 13 2 5 6
M  V30 14 1 5 7
M  V30 15 1 6 62
M  V30 16 1 6 95
M  V30 17 2 7 8
M  V30 18 1 7 10
M  V30 19 1 8 9
M  V30 20 1 8 63
M  V30 21 2 9 12
M  V30 22 1 9 64
M  V30 23 2 10 11
M  V30 24 1 10 65
M  V30 25 1 11 12
M  V30 26 1 11 13
M  V30 27 1 12 15
M  V30 28 2 13 14
M  V30 29 1 14 15
M  V30 30 1 14 16
M  V30 31 1 15 66
M  V30 32 2 16 17
M  V30 33 1 16 19
M  V30 34 1 17 18
M  V30 35 1 17 67
M  V30 36 2 18 21
M  V30 37 1 18 68
M  V30 38 2 19 20
M  V30 39 1 19 69
M  V30 40 1 20 21
M  V30 41 1 20 70
M  V30 42 1 21 22
M  V30 43 1 22 23
M  V30 44 1 23 24
M  V30 45 1 23 71
M  V30 46 1 23 72
M  V30 47 2 24 25
M  V30 48 1 24 27
M  V30 49 1 25 26
M  V30 50 1 25 30
M  V30 51 2 27 28
M  V30 52 1 27 73
M  V30 53 1 28 29
M  V30 54 1 28 74
M  V30 55 2 29 30
M  V30 56 1 29 75
M  V30 57 1 30 31
M  V30 58 1 31 32
M  V30 59 1 31 76
M  V30 60 1 31 77
M  V30 61 1 32 33
M  V30 62 2 33 34
M  V30 63 1 33 38
M  V30 64 1 34 35
M  V30 65 1 34 78
M  V30 66 2 35 36
M  V30 67 1 35 79
M  V30 68 1 36 37
M  V30 69 1 36 39
M  V30 70 2 37 38
M  V30 71 1 37 80
M  V30 72 1 38 81
M  V30 73 2 39 40
M  V30 74 1 39 41
M  V30 75 1 40 43
M  V30 76 1 41 42
M  V30 77 1 41 82
M  V30 78 2 42 43
M  V30 79 1 42 44
M  V30 80 1 43 47
M  V30 81 2 44 45
M  V30 82 1 44 83
M  V30 83 1 45 46
M  V30 84 1 45 48
M  V30 85 2 46 47
M  V30 86 1 46 84
M  V30 87 1 47 85
M  V30 88 2 48 49
M  V30 89 1 48 50
M  V30 90 1 49 86
M  V30 91 1 49 96
M  V30 92 1 50 51
M  V30 93 1 50 87
M  V30 94 1 51 52
M  V30 95 1 51 53
M  V30 96 1 51 88
M  V30 97 1 52 89
M  V30 98 1 52 90
M  V30 99 1 52 91
M  V30 100 1 53 92
M  V30 101 1 53 93
M  V30 102 1 53 94
M  V30 END BOND
M  V30 END CTAB
M  END
> <s_m_entry_id>
590

> <s_m_entry_name>
result.2070

> <s_m_Source_Path>
D:\OneDrive - zju.edu.cn\DOC\A-Finished\LCK_VS\Planet\LCK-8617

> <s_m_Source_File>
glide-dock_SP_top1262_2_pv.maegz

> <i_m_Source_File_Index>
590

> <PLANET_affinity>
9.753

> <i_lp_mmshare_version>
54117

> <i_f3d_flags>
0

> <s_epik_input>
W0NIM11bQ0hdKFtDSDNdKVtOSF0vQyg9TlxbSF0pYyhbY0hdMSlbY0hdW2NIXWMoYzEyKVtuSF1jKG4yKS1jM1tjSF1bY0hdYyhbY0hdW2NIXTMpT1tDSDJdYzRjKEYpYyhbY0hdW2NIXVtjSF00KVtDSDJdT2M1W2NIXVtjSF1jKFtjSF1bY0hdNSktYyhbbkhdNiluYyhjNjcpW2NIXVtjSF1jKFtjSF03KS9DKD1OXFtIXSlbTkhdW0NIXShbQ0gzXSlbQ0gzXQ==

> <s_epik_cmdline>
J2VwaWtfcHl0aG9uJywgJy1waCcsICc3LjAnLCAnLXRuJywgJzgnLCAnLW1hJywgJzUwMCcsICctaW1hZScsICc8aW5maWxlLm1hZT4nLCAnLW9tYWUnLCAnPG91dGZpbGUubWFlPic=

> <r_epik_Ionization_Penalty>
  0.2774

> <r_epik_Ionization_Penalty_Charging>
  0.0004

> <r_epik_Ionization_Penalty_Neutral>
  0.2770

> <r_epik_State_Penalty>
  0.5524

> <r_epik_Charging_Adjusted_Penalty>
0.552777

> <i_epik_Tot_Q>
2

> <i_epik_Tot_abs_Q>
2

> <s_epik_Chemistry_Notes>
This compound has an imine and may undergo hydrolysis.

> <s_lp_Force_Field>
S-OPLS

> <r_lp_Energy>
87.8416

> <b_lp_Chiralities_Consistent>
1

> <s_lp_Variant>
FC1=C(COC2=CC=C(C3=NC4=CC=C(C(NC(C)C)=N)C=C4N3)C=C2)C=CC=C1COC5=CC=C(C6=NC7=C...-1

> <s_i_glide_gridfile>
glide-grid_1

> <i_i_glide_lignum>
292

> <i_i_glide_rotatable_bonds>
14

> <r_i_docking_score>
-7.90076091522964

> <r_i_glide_ligand_efficiency>
-0.14907096066471

> <r_i_glide_ligand_efficiency_sa>
-0.559953125171841

> <r_i_glide_ligand_efficiency_ln>
-1.58959695982589

> <r_i_glide_gscore>
-8.45316091522964

> <r_i_glide_lipo>
-3.37916977614918

> <r_i_glide_hbond>
-0.219933403047695

> <r_i_glide_metal>
0

> <r_i_glide_rewards>
-0.541957935226677

> <r_i_glide_evdw>
-56.0086822509766

> <r_i_glide_ecoul>
-10.7213287353516

> <r_i_glide_erotb>
0.330836623243717

> <r_i_glide_esite>
-0.234303001198241

> <r_i_glide_emodel>
-106.826239329054

> <r_i_glide_energy>
-66.7300109863281

> <r_i_glide_einternal>
8.32327651977539

> <i_i_glide_confnum>
12

> <i_i_glide_posenum>
246

> <r_i_glide_eff_state_penalty>
0.5524

> <r_lp_tautomer_probability>
1

> <s_m_subgroup_title>
glide-dock_SP_top1262_2_pv

> <s_m_subgroupid>
glide-dock_SP_top1262_2_pv

> <b_m_subgroup_collapsed>
0

$$$$
O=C(NC(CO)CO)C1=CN=CC=C1NC2=CC(C3=CC(Cl)=CC=C3F)=NC=C2C(C)C
                    3D
 Schrodinger Suite 2021-3.
  0  0  0     0  0            999 V3000
M  V30 BEGIN CTAB
M  V30 COUNTS 56 58 0 0 0
M  V30 BEGIN ATOM
M  V30 1 O  29.6838 41.1568 82.6734 0
M  V30 2 C  30.3522 40.2152 83.4812 0
M  V30 3 C  29.4471 39.7818 84.6570 0
M  V30 4 C  30.2603 39.1325 85.8012 0
M  V30 5 O  31.0995 40.0682 86.4434 0
M  V30 6 N  28.2540 38.9921 84.2713 0
M  V30 7 C  28.2806 37.7065 83.8683 0
M  V30 8 O  29.3388 37.1041 83.6814 0
M  V30 9 C  26.9679 36.9794 83.6502 0
M  V30 10 C  26.9599 35.9681 82.6758 0
M  V30 11 N  25.9157 35.1389 82.4463 0
M  V30 12 C  24.8342 35.2654 83.2403 0
M  V30 13 C  24.7480 36.2265 84.2407 0
M  V30 14 C  25.7852 37.1610 84.4208 0
M  V30 15 N  25.6589 38.1917 85.3841 0
M  V30 16 C  24.5741 38.7134 86.1275 0
M  V30 17 C  23.2439 38.4704 85.7506 0
M  V30 18 C  22.1897 38.8623 86.5767 0
M  V30 19 N  22.4010 39.5578 87.7216 0
M  V30 20 C  23.6743 39.9109 88.0235 0
M  V30 21 C  24.7934 39.5227 87.2695 0
M  V30 22 C  26.1661 40.0693 87.6983 0
M  V30 23 C  26.6768 41.1358 86.7129 0
M  V30 24 C  27.2158 38.9946 88.0338 0
M  V30 25 C  20.7735 38.5293 86.2604 0
M  V30 26 C  19.9733 37.8769 87.2090 0
M  V30 27 C  18.6383 37.5787 86.9380 0
M  V30 28 Cl 17.6834 36.7575 88.1130 0
M  V30 29 C  18.0855 37.9244 85.7074 0
M  V30 30 C  18.8806 38.5273 84.7352 0
M  V30 31 C  20.2161 38.8291 85.0067 0
M  V30 32 F  20.9673 39.4120 84.0439 0
M  V30 33 H  30.1126 42.0135 82.8428 0
M  V30 34 H  30.6597 39.3649 82.8738 0
M  V30 35 H  31.2590 40.7015 83.8412 0
M  V30 36 H  29.0425 40.6934 85.0980 0
M  V30 37 H  29.5839 38.7567 86.5612 0
M  V30 38 H  30.8529 38.2816 85.4628 0
M  V30 39 H  31.2832 39.7321 87.3307 0
M  V30 40 H  27.3795 39.4920 84.2013 0
M  V30 41 H  27.8275 35.7830 82.0532 0
M  V30 42 H  24.0288 34.5619 83.0791 0
M  V30 43 H  23.8830 36.1898 84.8786 0
M  V30 44 H  26.5461 38.5955 85.6495 0
M  V30 45 H  22.9984 37.9844 84.8231 0
M  V30 46 H  23.7828 40.5249 88.9062 0
M  V30 47 H  26.0214 40.6056 88.6391 0
M  V30 48 H  25.9916 41.9840 86.6680 0
M  V30 49 H  27.6513 41.5228 87.0159 0
M  V30 50 H  26.7674 40.7477 85.7001 0
M  V30 51 H  26.8667 38.3456 88.8318 0
M  V30 52 H  27.4679 38.3637 87.1863 0
M  V30 53 H  28.1401 39.4551 88.3863 0
M  V30 54 H  20.4044 37.5656 88.1455 0
M  V30 55 H  17.0488 37.7000 85.4985 0
M  V30 56 H  18.4626 38.7562 83.7667 0
M  V30 END ATOM
M  V30 BEGIN BOND
M  V30 1 1 1 2
M  V30 2 1 1 33
M  V30 3 1 2 3
M  V30 4 1 2 34
M  V30 5 1 2 35
M  V30 6 1 3 4
M  V30 7 1 3 6
M  V30 8 1 3 36
M  V30 9 1 4 5
M  V30 10 1 4 37
M  V30 11 1 4 38
M  V30 12 1 5 39
M  V30 13 1 6 7
M  V30 14 1 6 40
M  V30 15 2 7 8
M  V30 16 1 7 9
M  V30 17 2 9 10
M  V30 18 1 9 14
M  V30 19 1 10 11
M  V30 20 1 10 41
M  V30 21 2 11 12
M  V30 22 1 12 13
M  V30 23 1 12 42
M  V30 24 2 13 14
M  V30 25 1 13 43
M  V30 26 1 14 15
M  V30 27 1 15 16
M  V30 28 1 15 44
M  V30 29 2 16 17
M  V30 30 1 16 21
M  V30 31 1 17 18
M  V30 32 1 17 45
M  V30 33 2 18 19
M  V30 34 1 18 25
M  V30 35 1 19 20
M  V30 36 2 20 21
M  V30 37 1 20 46
M  V30 38 1 21 22
M  V30 39 1 22 23
M  V30 40 1 22 24
M  V30 41 1 22 47
M  V30 42 1 23 48
M  V30 43 1 23 49
M  V30 44 1 23 50
M  V30 45 1 24 51
M  V30 46 1 24 52
M  V30 47 1 24 53
M  V30 48 2 25 26
M  V30 49 1 25 31
M  V30 50 1 26 27
M  V30 51 1 26 54
M  V30 52 1 27 28
M  V30 53 2 27 29
M  V30 54 1 29 30
M  V30 55 1 29 55
M  V30 56 2 30 31
M  V30 57 1 30 56
M  V30 58 1 31 32
M  V30 END BOND
M  V30 END CTAB
M  END
> <s_m_entry_id>
595

> <s_m_entry_name>
result.1195

> <s_m_Source_Path>
D:\OneDrive - zju.edu.cn\DOC\A-Finished\LCK_VS\Planet\LCK-8617

> <s_m_Source_File>
glide-dock_SP_top1262_2_pv.maegz

> <i_m_Source_File_Index>
595

> <PLANET_affinity>
7.535

> <i_lp_mmshare_version>
54117

> <i_f3d_flags>
0

> <s_epik_input>
W09IXVtDSDJdW0NIXShbQ0gyXVtPSF0pW05IXUMoPU8pYzFbY0hdbltjSF1bY0hdYzFbTkhdYzJbY0hdYyhuW2NIXWMyW0NIXShbQ0gzXSlbQ0gzXSktYzNbY0hdYyhDbClbY0hdW2NIXWMzRg==

> <s_epik_cmdline>
J2VwaWtfcHl0aG9uJywgJy1waCcsICc3LjAnLCAnLXRuJywgJzgnLCAnLW1hJywgJzUwMCcsICctaW1hZScsICc8aW5maWxlLm1hZT4nLCAnLW9tYWUnLCAnPG91dGZpbGUubWFlPic=

> <r_epik_Ionization_Penalty>
  0.4031

> <r_epik_Ionization_Penalty_Charging>
  0.0000

> <r_epik_Ionization_Penalty_Neutral>
  0.4031

> <r_epik_State_Penalty>
  0.3971

> <r_epik_Charging_Adjusted_Penalty>
0.397122

> <i_epik_Tot_Q>
0

> <i_epik_Tot_abs_Q>
0

> <s_lp_Force_Field>
S-OPLS

> <r_lp_Energy>
42.6468

> <b_lp_Chiralities_Consistent>
1

> <s_lp_Variant>
O=C(NC(CO)CO)C1=CN=CC=C1NC2=CC(C3=CC(Cl)=CC=C3F)=NC=C2C(C)C-1

> <s_i_glide_gridfile>
glide-grid_1

> <i_i_glide_lignum>
1883

> <i_i_glide_rotatable_bonds>
11

> <r_i_docking_score>
-7.89580075513929

> <r_i_glide_ligand_efficiency>
-0.246743773598103

> <r_i_glide_ligand_efficiency_sa>
-0.783362650647487

> <r_i_glide_ligand_efficiency_ln>
-1.76808502047538

> <r_i_glide_gscore>
-8.29290075513929

> <r_i_glide_lipo>
-3.06168172375879

> <r_i_glide_hbond>
-1.12052382434092

> <r_i_glide_metal>
0

> <r_i_glide_rewards>
-1.43779269136577

> <r_i_glide_evdw>
-40.8956565856934

> <r_i_glide_ecoul>
-9.28183650970459

> <r_i_glide_erotb>
0.764155790066542

> <r_i_glide_esite>
0

> <r_i_glide_emodel>
-72.0628875105179

> <r_i_glide_energy>
-50.1774930953979

> <r_i_glide_einternal>
11.8041915893555

> <i_i_glide_confnum>
250

> <i_i_glide_posenum>
119

> <r_i_glide_eff_state_penalty>
0.3971

> <r_lp_tautomer_probability>
0.999998

> <s_m_subgroup_title>
glide-dock_SP_top1262_2_pv

> <s_m_subgroupid>
glide-dock_SP_top1262_2_pv

> <b_m_subgroup_collapsed>
0

$$$$
O=C(NCCOCCOCCNS(=O)(C1=CC=CC([C@@H]2CN(C)CC3=C2C=C(Cl)C=C3Cl)=C1)=O)NCCCCNC(N...
                    3D
 Schrodinger Suite 2021-3.
  0  0  0     0  0            999 V3000
M  V30 BEGIN CTAB
M  V30 COUNTS 142 147 0 0 0
M  V30 BEGIN ATOM
M  V30 1 Cl 30.4891 42.6846 90.3962 0
M  V30 2 C  31.5468 42.4717 89.0431 0
M  V30 3 C  32.3176 41.3099 88.9934 0
M  V30 4 C  33.1532 41.0760 87.9123 0
M  V30 5 Cl 34.0865 39.6282 87.8343 0
M  V30 6 C  33.2162 42.0027 86.8814 0
M  V30 7 C  32.4530 43.1773 86.9061 0
M  V30 8 C  31.6066 43.4295 88.0130 0
M  V30 9 C  32.5381 44.1531 85.7274 0 CFG=1
M  V30 10 C  31.3297 45.1034 85.6432 0
M  V30 11 N  31.1134 45.7445 87.0287 0 CHG=1 CFG=1
M  V30 12 C  30.0362 46.8502 86.9373 0
M  V30 13 C  30.7069 44.6813 88.0767 0
M  V30 14 C  33.8739 44.9006 85.6110 0
M  V30 15 C  34.4395 45.0858 84.3418 0
M  V30 16 C  34.5485 45.3968 86.7337 0
M  V30 17 C  35.7560 46.0844 86.5823 0
M  V30 18 C  36.3046 46.2752 85.3126 0
M  V30 19 C  35.6406 45.7760 84.1894 0
M  V30 20 S  36.3504 45.9726 82.5505 0
M  V30 21 O  35.2798 45.7952 81.5692 0
M  V30 22 O  37.1524 47.1944 82.5705 0
M  V30 23 N  37.4498 44.6017 82.4078 0 CFG=1
M  V30 24 C  36.8503 43.2485 82.4418 0
M  V30 25 C  36.3179 42.7880 81.0743 0
M  V30 26 O  35.1521 41.9871 81.2818 0
M  V30 27 C  34.7907 41.2042 80.1484 0
M  V30 28 C  33.3383 40.7255 80.2286 0
M  V30 29 O  33.0526 40.1296 81.4889 0
M  V30 30 C  31.7466 39.5713 81.5353 0
M  V30 31 C  31.4323 39.0481 82.9402 0
M  V30 32 N  31.1432 40.1134 83.8982 0
M  V30 33 C  29.9345 40.6689 84.0634 0
M  V30 34 O  28.9359 40.3641 83.4047 0
M  V30 35 N  29.9456 41.5516 85.0678 0
M  V30 36 C  28.7659 42.0693 85.7500 0
M  V30 37 C  27.8752 42.9808 84.8950 0
M  V30 38 C  26.7974 43.6912 85.7236 0
M  V30 39 C  25.8045 44.4581 84.8435 0
M  V30 40 N  24.7705 45.1657 85.6017 0
M  V30 41 C  24.9521 46.3530 86.1909 0
M  V30 42 O  26.0519 46.9037 86.3104 0
M  V30 43 N  23.7928 46.8939 86.5910 0
M  V30 44 C  23.6347 48.1889 87.2561 0
M  V30 45 C  24.3824 48.3204 88.6004 0
M  V30 46 O  23.9449 47.2947 89.4814 0
M  V30 47 C  24.6279 47.2148 90.7252 0
M  V30 48 C  26.0442 46.6129 90.6125 0
M  V30 49 O  25.9750 45.3493 89.9605 0
M  V30 50 C  27.0128 44.4355 90.2969 0
M  V30 51 C  26.7743 43.1184 89.5415 0
M  V30 52 N  25.4056 42.6006 89.7650 0 CFG=1
M  V30 53 S  25.0969 40.8934 90.0220 0
M  V30 54 O  26.0847 40.3956 90.9814 0
M  V30 55 O  23.6571 40.7566 90.2706 0
M  V30 56 C  25.4403 40.1129 88.4433 0
M  V30 57 C  26.7313 39.6679 88.1509 0
M  V30 58 C  26.9981 39.0648 86.9244 0
M  V30 59 C  25.9867 38.9212 85.9757 0
M  V30 60 C  24.6890 39.3609 86.2555 0
M  V30 61 C  24.4207 39.9489 87.5000 0
M  V30 62 C  23.5766 39.1731 85.2125 0 CFG=2
M  V30 63 C  23.2865 40.4719 84.4150 0
M  V30 64 N  22.3538 41.3754 85.2413 0 CHG=1 CFG=1
M  V30 65 C  22.1847 42.7571 84.5637 0
M  V30 66 C  20.9743 40.7022 85.4218 0
M  V30 67 C  22.3173 38.5298 85.8048 0
M  V30 68 C  21.1085 39.2555 85.9320 0
M  V30 69 C  22.3727 37.2038 86.2655 0
M  V30 70 C  21.2704 36.5881 86.8443 0
M  V30 71 Cl 21.3802 34.9667 87.4251 0
M  V30 72 C  20.0755 37.2900 86.9509 0
M  V30 73 C  19.9968 38.6045 86.4974 0
M  V30 74 Cl 18.4841 39.4182 86.6450 0
M  V30 75 H  32.2491 40.5792 89.7896 0
M  V30 76 H  33.8630 41.8100 86.0375 0
M  V30 77 H  32.4841 43.5214 84.8428 0
M  V30 78 H  31.4831 45.8959 84.9055 0
M  V30 79 H  30.4106 44.5758 85.3861 0
M  V30 80 H  29.1009 46.3960 86.5953 0
M  V30 81 H  29.9240 47.2848 87.9301 0
M  V30 82 H  30.3914 47.5955 86.2254 0
M  V30 83 H  29.6673 44.4159 87.8699 0
M  V30 84 H  30.7534 45.1827 89.0442 0
M  V30 85 H  33.9273 44.7014 83.4705 0
M  V30 86 H  34.1394 45.2636 87.7257 0
M  V30 87 H  36.2733 46.4651 87.4509 0
M  V30 88 H  37.2436 46.7948 85.2031 0
M  V30 89 H  38.2387 44.7009 83.0478 0
M  V30 90 H  37.6247 42.5437 82.7396 0
M  V30 91 H  36.0883 43.1747 83.2163 0
M  V30 92 H  36.0583 43.6334 80.4259 0
M  V30 93 H  37.1005 42.2177 80.5544 0
M  V30 94 H  34.8826 41.8025 79.2439 0
M  V30 95 H  35.4704 40.3575 80.0591 0
M  V30 96 H  32.6621 41.5566 80.0495 0
M  V30 97 H  33.1687 40.0077 79.4235 0
M  V30 98 H  31.0081 40.3209 81.2374 0
M  V30 99 H  31.6837 38.7363 80.8374 0
M  V30 100 H  30.6268 38.3075 82.9054 0
M  V30 101 H  32.3115 38.5202 83.3145 0
M  V30 102 H  31.9290 40.4812 84.4129 0
M  V30 103 H  30.8334 41.9315 85.3590 0
M  V30 104 H  28.1766 41.2556 86.1693 0
M  V30 105 H  29.1128 42.6204 86.6228 0
M  V30 106 H  28.4814 43.7210 84.3680 0
M  V30 107 H  27.3952 42.3849 84.1188 0
M  V30 108 H  26.2456 42.9563 86.3165 0
M  V30 109 H  27.2740 44.3739 86.4271 0
M  V30 110 H  26.3298 45.1468 84.1771 0
M  V30 111 H  25.3294 43.7426 84.1744 0
M  V30 112 H  23.8396 44.7801 85.5747 0
M  V30 113 H  22.9406 46.3800 86.4163 0
M  V30 114 H  23.9418 48.9856 86.5776 0
M  V30 115 H  22.5665 48.3353 87.4309 0
M  V30 116 H  25.4594 48.2614 88.4362 0
M  V30 117 H  24.1803 49.2971 89.0395 0
M  V30 118 H  24.6555 48.1902 91.2122 0
M  V30 119 H  24.0292 46.5710 91.3717 0
M  V30 120 H  26.7130 47.2682 90.0543 0
M  V30 121 H  26.4586 46.5225 91.6218 0
M  V30 122 H  27.9910 44.8474 90.0345 0
M  V30 123 H  27.0140 44.2467 91.3742 0
M  V30 124 H  26.9863 43.2340 88.4822 0
M  V30 125 H  27.4975 42.3752 89.8796 0
M  V30 126 H  24.6391 43.1593 89.3805 0
M  V30 127 H  27.5322 39.7826 88.8685 0
M  V30 128 H  28.0034 38.7434 86.6939 0
M  V30 129 H  26.2206 38.4640 85.0252 0
M  V30 130 H  23.4197 40.2786 87.7387 0
M  V30 131 H  23.9672 38.4584 84.4861 0
M  V30 132 H  24.1957 41.0363 84.2005 0
M  V30 133 H  22.7641 40.2713 83.4756 0
M  V30 134 H  21.6094 42.6332 83.6435 0
M  V30 135 H  21.6841 43.4198 85.2729 0
M  V30 136 H  23.1714 43.1478 84.3349 0
M  V30 137 H  20.4215 41.3452 86.1054 0
M  V30 138 H  20.4764 40.7160 84.4493 0
M  V30 139 H  23.2966 36.6517 86.1819 0
M  V30 140 H  19.2080 36.8117 87.3883 0
M  V30 141 H  31.9966 46.1524 87.3062 0
M  V30 142 H  22.7745 41.4999 86.1505 0
M  V30 END ATOM
M  V30 BEGIN BOND
M  V30 1 1 1 2
M  V30 2 2 2 3
M  V30 3 1 2 8
M  V30 4 1 3 4
M  V30 5 1 3 75
M  V30 6 1 4 5
M  V30 7 2 4 6
M  V30 8 1 6 7
M  V30 9 1 6 76
M  V30 10 2 7 8
M  V30 11 1 7 9
M  V30 12 1 8 13
M  V30 13 1 9 10
M  V30 14 1 9 14
M  V30 15 1 9 77
M  V30 16 1 10 11
M  V30 17 1 10 78
M  V30 18 1 10 79
M  V30 19 1 11 12
M  V30 20 1 11 13
M  V30 21 1 11 141
M  V30 22 1 12 80
M  V30 23 1 12 81
M  V30 24 1 12 82
M  V30 25 1 13 83
M  V30 26 1 13 84
M  V30 27 2 14 15
M  V30 28 1 14 16
M  V30 29 1 15 19
M  V30 30 1 15 85
M  V30 31 2 16 17
M  V30 32 1 16 86
M  V30 33 1 17 18
M  V30 34 1 17 87
M  V30 35 2 18 19
M  V30 36 1 18 88
M  V30 37 1 19 20
M  V30 38 2 20 21
M  V30 39 2 20 22
M  V30 40 1 20 23
M  V30 41 1 23 24
M  V30 42 1 23 89
M  V30 43 1 24 25
M  V30 44 1 24 90
M  V30 45 1 24 91
M  V30 46 1 25 26
M  V30 47 1 25 92
M  V30 48 1 25 93
M  V30 49 1 26 27
M  V30 50 1 27 28
M  V30 51 1 27 94
M  V30 52 1 27 95
M  V30 53 1 28 29
M  V30 54 1 28 96
M  V30 55 1 28 97
M  V30 56 1 29 30
M  V30 57 1 30 31
M  V30 58 1 30 98
M  V30 59 1 30 99
M  V30 60 1 31 32
M  V30 61 1 31 100
M  V30 62 1 31 101
M  V30 63 1 32 33
M  V30 64 1 32 102
M  V30 65 2 33 34
M  V30 66 1 33 35
M  V30 67 1 35 36
M  V30 68 1 35 103
M  V30 69 1 36 37
M  V30 70 1 36 104
M  V30 71 1 36 105
M  V30 72 1 37 38
M  V30 73 1 37 106
M  V30 74 1 37 107
M  V30 75 1 38 39
M  V30 76 1 38 108
M  V30 77 1 38 109
M  V30 78 1 39 40
M  V30 79 1 39 110
M  V30 80 1 39 111
M  V30 81 1 40 41
M  V30 82 1 40 112
M  V30 83 2 41 42
M  V30 84 1 41 43
M  V30 85 1 43 44
M  V30 86 1 43 113
M  V30 87 1 44 45
M  V30 88 1 44 114
M  V30 89 1 44 115
M  V30 90 1 45 46
M  V30 91 1 45 116
M  V30 92 1 45 117
M  V30 93 1 46 47
M  V30 94 1 47 48
M  V30 95 1 47 118
M  V30 96 1 47 119
M  V30 97 1 48 49
M  V30 98 1 48 120
M  V30 99 1 48 121
M  V30 100 1 49 50
M  V30 101 1 50 51
M  V30 102 1 50 122
M  V30 103 1 50 123
M  V30 104 1 51 52
M  V30 105 1 51 124
M  V30 106 1 51 125
M  V30 107 1 52 53
M  V30 108 1 52 126
M  V30 109 2 53 54
M  V30 110 2 53 55
M  V30 111 1 53 56
M  V30 112 2 56 57
M  V30 113 1 56 61
M  V30 114 1 57 58
M  V30 115 1 57 127
M  V30 116 2 58 59
M  V30 117 1 58 128
M  V30 118 1 59 60
M  V30 119 1 59 129
M  V30 120 2 60 61
M  V30 121 1 60 62
M  V30 122 1 61 130
M  V30 123 1 62 63
M  V30 124 1 62 67
M  V30 125 1 62 131
M  V30 126 1 63 64
M  V30 127 1 63 132
M  V30 128 1 63 133
M  V30 129 1 64 65
M  V30 130 1 64 66
M  V30 131 1 64 142
M  V30 132 1 65 134
M  V30 133 1 65 135
M  V30 134 1 65 136
M  V30 135 1 66 68
M  V30 136 1 66 137
M  V30 137 1 66 138
M  V30 138 2 67 68
M  V30 139 1 67 69
M  V30 140 1 68 73
M  V30 141 2 69 70
M  V30 142 1 69 139
M  V30 143 1 70 71
M  V30 144 1 70 72
M  V30 145 2 72 73
M  V30 146 1 72 140
M  V30 147 1 73 74
M  V30 END BOND
M  V30 END CTAB
M  END
> <s_m_entry_id>
596

> <s_m_entry_name>
result.1051

> <s_m_Source_Path>
D:\OneDrive - zju.edu.cn\DOC\A-Finished\LCK_VS\Planet\LCK-8617

> <s_m_Source_File>
glide-dock_SP_top1262_2_pv.maegz

> <i_m_Source_File_Index>
596

> <PLANET_affinity>
8.455

> <i_lp_mmshare_version>
54117

> <i_f3d_flags>
0

> <s_epik_input>
Q2xjKFtjSF0xKVtjSF1jKENsKWMoYzEyKVtDSDJdTihbQ0gzXSlbQ0gyXVtDQEhdMmMzW2NIXWMoW2NIXVtjSF1bY0hdMylTKD1PKSg9TylbTkhdW0NIMl1bQ0gyXU9bQ0gyXVtDSDJdT1tDSDJdW0NIMl1bTkhdQyg9TylbTkhdW0NIMl1bQ0gyXVtDSDJdW0NIMl1bTkhdQyg9TylbTkhdW0NIMl1bQ0gyXU9bQ0gyXVtDSDJdT1tDSDJdW0NIMl1bTkhdUyg9TykoPU8pYzRbY0hdW2NIXVtjSF1jKFtjSF00KVtDQEBIXTVbQ0gyXU4oW0NIM10pW0NIMl1jKGM1NiljKENsKVtjSF1jKENsKVtjSF02

> <s_epik_cmdline>
J2VwaWtfcHl0aG9uJywgJy1waCcsICc3LjAnLCAnLXRuJywgJzgnLCAnLW1hJywgJzUwMCcsICctaW1hZScsICc8aW5maWxlLm1hZT4nLCAnLW9tYWUnLCAnPG91dGZpbGUubWFlPic=

> <r_epik_Ionization_Penalty>
  0.0827

> <r_epik_Ionization_Penalty_Charging>
  0.0823

> <r_epik_Ionization_Penalty_Neutral>
  0.0004

> <r_epik_State_Penalty>
  0.0751

> <r_epik_Charging_Adjusted_Penalty>
0.157342

> <i_epik_Tot_Q>
2

> <i_epik_Tot_abs_Q>
2

> <s_lp_Force_Field>
S-OPLS

> <r_lp_Energy>
81.4661

> <b_lp_Chiralities_Consistent>
1

> <s_lp_Variant>
O=C(NCCOCCOCCNS(=O)(C1=CC=CC([C@@H]2CN(C)CC3=C2C=C(Cl)C=C3Cl)=C1)=O)NCCCCNC(N...-3

> <s_i_glide_gridfile>
glide-grid_1

> <i_i_glide_lignum>
831

> <i_i_glide_rotatable_bonds>
33

> <r_i_docking_score>
-7.89330163149674

> <r_i_glide_ligand_efficiency>
-0.10666623826347

> <r_i_glide_ligand_efficiency_sa>
-0.447820755849654

> <r_i_glide_ligand_efficiency_ln>
-1.48816077721407

> <r_i_glide_gscore>
-7.96840163149674

> <r_i_glide_lipo>
-2.75396455291664

> <r_i_glide_hbond>
-0.126043245534278

> <r_i_glide_metal>
0

> <r_i_glide_rewards>
0.061151449296492

> <r_i_glide_evdw>
-60.8819351196289

> <r_i_glide_ecoul>
-14.9534368515015

> <r_i_glide_erotb>
0.343551126753511

> <r_i_glide_esite>
-0.205984125389169

> <r_i_glide_emodel>
-103.781807946358

> <r_i_glide_energy>
-75.8353719711304

> <r_i_glide_einternal>
19.4189987182617

> <i_i_glide_confnum>
888

> <i_i_glide_posenum>
158

> <r_i_glide_eff_state_penalty>
0.0751

> <s_m_subgroup_title>
glide-dock_SP_top1262_2_pv

> <s_m_subgroupid>
glide-dock_SP_top1262_2_pv

> <b_m_subgroup_collapsed>
0

$$$$
FC1=CC=C([C@@]2(CN3C=NC=N3)C[C@H](COC4=CC=C(N5CCN(C6=CC=C(N7C=NN([C@@H](CC)[C...
                    3D
 Schrodinger Suite 2021-3.
  0  0  0     0  0            999 V3000
M  V30 BEGIN CTAB
M  V30 COUNTS 93 99 0 0 0
M  V30 BEGIN ATOM
M  V30 1 N  22.0826 35.9014 87.0379 0
M  V30 2 C  21.0951 35.0523 87.2435 0
M  V30 3 N  19.9364 35.5534 87.6431 0
M  V30 4 C  20.2030 36.8239 87.7065 0
M  V30 5 N  21.5019 37.0633 87.3470 0
M  V30 6 C  22.2480 38.3251 87.2421 0
M  V30 7 C  21.3440 39.5991 87.0414 0 CFG=2
M  V30 8 C  20.2363 39.3295 86.0102 0
M  V30 9 C  20.5617 38.7494 84.7770 0
M  V30 10 F  21.8523 38.5481 84.4355 0
M  V30 11 C  19.5634 38.3545 83.8982 0
M  V30 12 C  18.8846 39.5442 86.3209 0
M  V30 13 C  17.8870 39.1541 85.4286 0
M  V30 14 C  18.2305 38.5688 84.2125 0
M  V30 15 F  17.2829 38.2634 83.3058 0
M  V30 16 C  22.1417 40.8718 86.7089 0
M  V30 17 C  22.5646 41.4959 88.0387 0 CFG=1
M  V30 18 C  21.7916 40.6837 89.0794 0
M  V30 19 O  20.8214 39.9568 88.3294 0
M  V30 20 C  24.0834 41.5321 88.3099 0
M  V30 21 O  24.6755 40.2424 88.1312 0
M  V30 22 C  25.5001 39.9636 87.0575 0
M  V30 23 C  25.8093 40.8554 86.0202 0
M  V30 24 C  26.6671 40.4682 84.9938 0
M  V30 25 C  27.2140 39.1830 84.9643 0
M  V30 26 C  26.8812 38.2886 85.9866 0
M  V30 27 C  26.0385 38.6777 87.0221 0
M  V30 28 N  28.1021 38.8435 83.9468 0
M  V30 29 C  29.3147 39.6520 83.7473 0
M  V30 30 C  30.5627 39.0195 84.4048 0
M  V30 31 N  30.8397 37.6592 83.9186 0
M  V30 32 C  29.6341 36.8482 84.1700 0
M  V30 33 C  28.3693 37.4580 83.5256 0
M  V30 34 C  31.6634 37.3801 82.8278 0
M  V30 35 C  32.0848 38.3807 81.9414 0
M  V30 36 C  32.8868 38.0759 80.8453 0
M  V30 37 C  33.3096 36.7582 80.6154 0
M  V30 38 C  32.9117 35.7600 81.5199 0
M  V30 39 C  32.0984 36.0701 82.6062 0
M  V30 40 N  34.1148 36.4249 79.4898 0
M  V30 41 C  34.0837 35.2713 78.7879 0
M  V30 42 N  34.9582 35.2060 77.8943 0
M  V30 43 N  35.6257 36.3516 78.0216 0
M  V30 44 C  35.0621 37.2033 78.9061 0
M  V30 45 O  35.3816 38.3689 79.1506 0
M  V30 46 C  36.8665 36.6335 77.2571 0 CFG=1
M  V30 47 C  37.9188 35.4964 77.3904 0
M  V30 48 C  38.3190 35.1696 78.8398 0
M  V30 49 C  36.6249 37.0223 75.7699 0 CFG=2
M  V30 50 C  35.8175 38.3149 75.5811 0
M  V30 51 O  35.9699 35.9985 75.0522 0
M  V30 52 H  21.2129 33.9864 87.0734 0
M  V30 53 H  19.5440 37.6138 88.0260 0
M  V30 54 H  22.9500 38.2286 86.4151 0
M  V30 55 H  22.8834 38.4054 88.1144 0
M  V30 56 H  19.8314 37.9342 82.9411 0
M  V30 57 H  18.5890 39.9942 87.2585 0
M  V30 58 H  16.8486 39.3245 85.6755 0
M  V30 59 H  21.5071 41.5829 86.1740 0
M  V30 60 H  22.9755 40.6586 86.0399 0
M  V30 61 H  22.1925 42.5217 88.0641 0
M  V30 62 H  22.4082 39.9801 89.6408 0
M  V30 63 H  21.2831 41.3187 89.8049 0
M  V30 64 H  24.2424 41.7913 89.3583 0
M  V30 65 H  24.5642 42.3427 87.7658 0
M  V30 66 H  25.4078 41.8533 85.9735 0
M  V30 67 H  26.8976 41.1775 84.2117 0
M  V30 68 H  27.2832 37.2881 85.9959 0
M  V30 69 H  25.7993 37.9751 87.8077 0
M  V30 70 H  29.4829 39.8065 82.6840 0
M  V30 71 H  29.1854 40.6500 84.1668 0
M  V30 72 H  30.4185 38.9807 85.4864 0
M  V30 73 H  31.4344 39.6614 84.2590 0
M  V30 74 H  29.7578 35.8330 83.7980 0
M  V30 75 H  29.4891 36.7571 85.2433 0
M  V30 76 H  28.4848 37.4301 82.4440 0
M  V30 77 H  27.5067 36.8270 83.7462 0
M  V30 78 H  31.7741 39.4042 82.0757 0
M  V30 79 H  33.1560 38.8743 80.1703 0
M  V30 80 H  33.2183 34.7330 81.3844 0
M  V30 81 H  31.8148 35.2772 83.2838 0
M  V30 82 H  33.3614 34.4784 78.9767 0
M  V30 83 H  37.3383 37.5128 77.7046 0
M  V30 84 H  37.5400 34.5893 76.9166 0
M  V30 85 H  38.8197 35.7668 76.8378 0
M  V30 86 H  39.0960 34.4063 78.8667 0
M  V30 87 H  38.7044 36.0521 79.3547 0
M  V30 88 H  37.4738 34.7916 79.4157 0
M  V30 89 H  37.5915 37.1611 75.2835 0
M  V30 90 H  36.3361 39.1568 76.0358 0
M  V30 91 H  34.8299 38.2503 76.0357 0
M  V30 92 H  35.6844 38.5488 74.5256 0
M  V30 93 H  35.0549 35.9531 75.3606 0
M  V30 END ATOM
M  V30 BEGIN BOND
M  V30 1 2 1 2
M  V30 2 1 1 5
M  V30 3 1 2 3
M  V30 4 1 2 52
M  V30 5 2 3 4
M  V30 6 1 4 5
M  V30 7 1 4 53
M  V30 8 1 5 6
M  V30 9 1 6 7
M  V30 10 1 6 54
M  V30 11 1 6 55
M  V30 12 1 7 8
M  V30 13 1 7 16
M  V30 14 1 7 19
M  V30 15 2 8 9
M  V30 16 1 8 12
M  V30 17 1 9 10
M  V30 18 1 9 11
M  V30 19 2 11 14
M  V30 20 1 11 56
M  V30 21 2 12 13
M  V30 22 1 12 57
M  V30 23 1 13 14
M  V30 24 1 13 58
M  V30 25 1 14 15
M  V30 26 1 16 17
M  V30 27 1 16 59
M  V30 28 1 16 60
M  V30 29 1 17 18
M  V30 30 1 17 20
M  V30 31 1 17 61
M  V30 32 1 18 19
M  V30 33 1 18 62
M  V30 34 1 18 63
M  V30 35 1 20 21
M  V30 36 1 20 64
M  V30 37 1 20 65
M  V30 38 1 21 22
M  V30 39 2 22 23
M  V30 40 1 22 27
M  V30 41 1 23 24
M  V30 42 1 23 66
M  V30 43 2 24 25
M  V30 44 1 24 67
M  V30 45 1 25 26
M  V30 46 1 25 28
M  V30 47 2 26 27
M  V30 48 1 26 68
M  V30 49 1 27 69
M  V30 50 1 28 29
M  V30 51 1 28 33
M  V30 52 1 29 30
M  V30 53 1 29 70
M  V30 54 1 29 71
M  V30 55 1 30 31
M  V30 56 1 30 72
M  V30 57 1 30 73
M  V30 58 1 31 32
M  V30 59 1 31 34
M  V30 60 1 32 33
M  V30 61 1 32 74
M  V30 62 1 32 75
M  V30 63 1 33 76
M  V30 64 1 33 77
M  V30 65 2 34 35
M  V30 66 1 34 39
M  V30 67 1 35 36
M  V30 68 1 35 78
M  V30 69 2 36 37
M  V30 70 1 36 79
M  V30 71 1 37 38
M  V30 72 1 37 40
M  V30 73 2 38 39
M  V30 74 1 38 80
M  V30 75 1 39 81
M  V30 76 1 40 41
M  V30 77 1 40 44
M  V30 78 2 41 42
M  V30 79 1 41 82
M  V30 80 1 42 43
M  V30 81 1 43 44
M  V30 82 1 43 46
M  V30 83 2 44 45
M  V30 84 1 46 47
M  V30 85 1 46 49
M  V30 86 1 46 83
M  V30 87 1 47 48
M  V30 88 1 47 84
M  V30 89 1 47 85
M  V30 90 1 48 86
M  V30 91 1 48 87
M  V30 92 1 48 88
M  V30 93 1 49 50
M  V30 94 1 49 51
M  V30 95 1 49 89
M  V30 96 1 50 90
M  V30 97 1 50 91
M  V30 98 1 50 92
M  V30 99 1 51 93
M  V30 END BOND
M  V30 END CTAB
M  END
> <s_m_entry_id>
603

> <s_m_entry_name>
result.2214

> <s_m_Source_Path>
D:\OneDrive - zju.edu.cn\DOC\A-Finished\LCK_VS\Planet\LCK-8617

> <s_m_Source_File>
glide-dock_SP_top1262_2_pv.maegz

> <i_m_Source_File_Index>
603

> <PLANET_affinity>
7.898

> <i_lp_mmshare_version>
54117

> <i_f3d_flags>
0

> <s_epik_input>
W2NIXTFuW2NIXW5uMVtDSDJdW0NAXTIoYzNjKEYpW2NIXWMoRilbY0hdW2NIXTMpW0NIMl1bQ0BASF0oW0NIMl1PMilbQ0gyXU9jNFtjSF1bY0hdYyhbY0hdW2NIXTQpTjVbQ0gyXVtDSDJdTihbQ0gyXVtDSDJdNSljNltjSF1bY0hdYyhbY0hdW2NIXTYpLW43W2NIXW5uKGM3PU8pW0NAQEhdKFtDSDJdW0NIM10pW0NASF0oW0NIM10pW09IXQ==

> <s_epik_cmdline>
J2VwaWtfcHl0aG9uJywgJy1waCcsICc3LjAnLCAnLXRuJywgJzgnLCAnLW1hJywgJzUwMCcsICctaW1hZScsICc8aW5maWxlLm1hZT4nLCAnLW9tYWUnLCAnPG91dGZpbGUubWFlPic=

> <r_epik_Ionization_Penalty>
  0.0220

> <r_epik_Ionization_Penalty_Charging>
  0.0000

> <r_epik_Ionization_Penalty_Neutral>
  0.0220

> <r_epik_State_Penalty>
  0.0177

> <r_epik_Charging_Adjusted_Penalty>
0.017708

> <i_epik_Tot_Q>
0

> <i_epik_Tot_abs_Q>
0

> <s_lp_Force_Field>
S-OPLS

> <r_lp_Energy>
65.8887

> <b_lp_Chiralities_Consistent>
1

> <s_lp_Variant>
FC1=CC=C([C@@]2(CN3C=NC=N3)C[C@H](COC4=CC=C(N5CCN(C6=CC=C(N7C=NN([C@@H](CC)[C...-1

> <s_i_glide_gridfile>
glide-grid_1

> <i_i_glide_lignum>
1415

> <i_i_glide_rotatable_bonds>
13

> <r_i_docking_score>
-7.88751066841142

> <r_i_glide_ligand_efficiency>
-0.154657071929636

> <r_i_glide_ligand_efficiency_sa>
-0.573534888819724

> <r_i_glide_ligand_efficiency_ln>
-1.59930850273277

> <r_i_glide_gscore>
-7.90521066841142

> <r_i_glide_lipo>
-2.2516650818631

> <r_i_glide_hbond>
-0.444038531044875

> <r_i_glide_metal>
0

> <r_i_glide_rewards>
-1.79999566062043

> <r_i_glide_evdw>
-54.0353660583496

> <r_i_glide_ecoul>
-6.54868459701538

> <r_i_glide_erotb>
0.304934497972823

> <r_i_glide_esite>
-0.0303749003860492

> <r_i_glide_emodel>
-86.9487892031876

> <r_i_glide_energy>
-60.584050655365

> <r_i_glide_einternal>
7.31412792205811

> <i_i_glide_confnum>
120

> <i_i_glide_posenum>
255

> <r_i_glide_eff_state_penalty>
0.0177

> <r_lp_tautomer_probability>
1

> <s_m_subgroup_title>
glide-dock_SP_top1262_2_pv

> <s_m_subgroupid>
glide-dock_SP_top1262_2_pv

> <b_m_subgroup_collapsed>
0

$$$$
O=C1NC=NC2=C1C(C3=CC=C(OCCOC)C=C3)=CN2C4=CC=CC=C4
                    3D
 Schrodinger Suite 2021-3.
  0  0  0     0  0            999 V3000
M  V30 BEGIN CTAB
M  V30 COUNTS 46 49 0 0 0
M  V30 BEGIN ATOM
M  V30 1 C  28.1590 40.9454 84.7837 0
M  V30 2 C  29.0522 41.9536 85.1360 0
M  V30 3 C  30.3055 41.6192 85.6435 0
M  V30 4 C  30.6782 40.2864 85.8027 0
M  V30 5 C  29.7913 39.2750 85.4465 0
M  V30 6 C  28.5308 39.6038 84.9346 0
M  V30 7 N  27.6225 38.5844 84.5743 0
M  V30 8 C  26.2870 38.5549 84.8973 0
M  V30 9 C  25.6469 37.4150 84.4100 0
M  V30 10 C  26.6490 36.7266 83.6769 0
M  V30 11 C  27.8512 37.4384 83.8404 0
M  V30 12 C  26.6833 35.5068 82.8465 0
M  V30 13 O  25.7719 34.7565 82.5078 0
M  V30 14 N  27.9631 35.2333 82.4435 0
M  V30 15 C  29.1041 35.9682 82.6652 0
M  V30 16 N  29.0680 37.0677 83.3332 0
M  V30 17 C  24.1993 37.1054 84.6796 0
M  V30 18 C  23.4082 36.3566 83.8051 0
M  V30 19 C  22.0494 36.1805 84.0449 0
M  V30 20 C  21.4475 36.7469 85.1671 0
M  V30 21 C  22.2421 37.4549 86.0779 0
M  V30 22 C  23.6016 37.6279 85.8340 0
M  V30 23 O  20.0856 36.5529 85.3082 0
M  V30 24 C  19.3357 37.3555 86.2266 0
M  V30 25 C  19.1988 38.8279 85.7638 0
M  V30 26 O  18.6179 38.9500 84.4664 0
M  V30 27 C  17.2123 38.7572 84.4262 0
M  V30 28 H  27.1909 41.2169 84.3856 0
M  V30 29 H  28.7832 42.9928 85.0055 0
M  V30 30 H  30.9995 42.4049 85.9060 0
M  V30 31 H  31.6524 40.0363 86.1981 0
M  V30 32 H  30.0901 38.2440 85.5734 0
M  V30 33 H  25.8856 39.3639 85.4905 0
M  V30 34 H  28.0385 34.4225 81.8477 0
M  V30 35 H  30.0312 35.5941 82.2372 0
M  V30 36 H  23.8071 35.9620 82.8872 0
M  V30 37 H  21.4559 35.6268 83.3328 0
M  V30 38 H  21.8261 37.8877 86.9735 0
M  V30 39 H  24.1845 38.1924 86.5453 0
M  V30 40 H  19.7479 37.2971 87.2347 0
M  V30 41 H  18.3485 36.9060 86.3170 0
M  V30 42 H  20.1845 39.2858 85.7116 0
M  V30 43 H  18.6411 39.4156 86.4953 0
M  V30 44 H  16.8827 38.7842 83.3874 0
M  V30 45 H  16.6912 39.5472 84.9689 0
M  V30 46 H  16.9111 37.7994 84.8459 0
M  V30 END ATOM
M  V30 BEGIN BOND
M  V30 1 2 1 2
M  V30 2 1 1 6
M  V30 3 1 1 28
M  V30 4 1 2 3
M  V30 5 1 2 29
M  V30 6 2 3 4
M  V30 7 1 3 30
M  V30 8 1 4 5
M  V30 9 1 4 31
M  V30 10 2 5 6
M  V30 11 1 5 32
M  V30 12 1 6 7
M  V30 13 1 7 8
M  V30 14 1 7 11
M  V30 15 2 8 9
M  V30 16 1 8 33
M  V30 17 1 9 10
M  V30 18 1 9 17
M  V30 19 2 10 11
M  V30 20 1 10 12
M  V30 21 1 11 16
M  V30 22 2 12 13
M  V30 23 1 12 14
M  V30 24 1 14 15
M  V30 25 1 14 34
M  V30 26 2 15 16
M  V30 27 1 15 35
M  V30 28 2 17 18
M  V30 29 1 17 22
M  V30 30 1 18 19
M  V30 31 1 18 36
M  V30 32 2 19 20
M  V30 33 1 19 37
M  V30 34 1 20 21
M  V30 35 1 20 23
M  V30 36 2 21 22
M  V30 37 1 21 38
M  V30 38 1 22 39
M  V30 39 1 23 24
M  V30 40 1 24 25
M  V30 41 1 24 40
M  V30 42 1 24 41
M  V30 43 1 25 26
M  V30 44 1 25 42
M  V30 45 1 25 43
M  V30 46 1 26 27
M  V30 47 1 27 44
M  V30 48 1 27 45
M  V30 49 1 27 46
M  V30 END BOND
M  V30 END CTAB
M  END
> <s_m_entry_id>
611

> <s_m_entry_name>
result.3302

> <s_m_Source_Path>
D:\OneDrive - zju.edu.cn\DOC\A-Finished\LCK_VS\Planet\LCK-8617

> <s_m_Source_File>
glide-dock_SP_top1262_2_pv.maegz

> <i_m_Source_File_Index>
611

> <PLANET_affinity>
7.308

> <i_lp_mmshare_version>
54117

> <i_f3d_flags>
0

> <s_epik_input>
W2NIXTFbY0hdW2NIXVtjSF1bY0hdYzEtbihjKGMyMyluW2NIXVtuSF1jMz1PKVtjSF1jMi1jNFtjSF1bY0hdYyhbY0hdW2NIXTQpT1tDSDJdW0NIMl1PW0NIM10=

> <s_epik_cmdline>
J2VwaWtfcHl0aG9uJywgJy1waCcsICc3LjAnLCAnLXRuJywgJzgnLCAnLW1hJywgJzUwMCcsICctaW1hZScsICc8aW5maWxlLm1hZT4nLCAnLW9tYWUnLCAnPG91dGZpbGUubWFlPic=

> <r_epik_Ionization_Penalty>
  0.0004

> <r_epik_Ionization_Penalty_Charging>
  0.0001

> <r_epik_Ionization_Penalty_Neutral>
  0.0003

> <r_epik_State_Penalty>
  0.0000

> <r_epik_Charging_Adjusted_Penalty>
0.000119783

> <i_epik_Tot_Q>
0

> <i_epik_Tot_abs_Q>
0

> <s_lp_Force_Field>
S-OPLS

> <r_lp_Energy>
55.458

> <b_lp_Chiralities_Consistent>
1

> <s_lp_Variant>
O=C1NC=NC2=C1C(C3=CC=C(OCCOC)C=C3)=CN2C4=CC=CC=C4-1

> <s_i_glide_gridfile>
glide-grid_1

> <i_i_glide_lignum>
2245

> <i_i_glide_rotatable_bonds>
6

> <r_i_docking_score>
-7.88152887592737

> <r_i_glide_ligand_efficiency>
-0.291908476886199

> <r_i_glide_ligand_efficiency_sa>
-0.875725429696515

> <r_i_glide_ligand_efficiency_ln>
-1.83468998515723

> <r_i_glide_gscore>
-7.88152887592737

> <r_i_glide_lipo>
-2.39328774034875

> <r_i_glide_hbond>
-0.846249716751643

> <r_i_glide_metal>
0

> <r_i_glide_rewards>
-2.18225936469012

> <r_i_glide_evdw>
-37.7804718017578

> <r_i_glide_ecoul>
-8.50363159179688

> <r_i_glide_erotb>
0.734655117422994

> <r_i_glide_esite>
-0.0298188427024301

> <r_i_glide_emodel>
-66.2669306505648

> <r_i_glide_energy>
-46.2841033935547

> <r_i_glide_einternal>
5.84820508956909

> <i_i_glide_confnum>
211

> <i_i_glide_posenum>
273

> <r_i_glide_eff_state_penalty>
0

> <r_lp_tautomer_probability>
1

> <s_m_subgroup_title>
glide-dock_SP_top1262_2_pv

> <s_m_subgroupid>
glide-dock_SP_top1262_2_pv

> <b_m_subgroup_collapsed>
0

$$$$
O=C1C[C@@H](C2=CC=C(O)C=C2)OC3=CC(O[C@H]4[C@@H]([C@H]([C@@H]([C@@H](CO)O4)O)O...
                    3D
 Schrodinger Suite 2021-3.
  0  0  0     0  0            999 V3000
M  V30 BEGIN CTAB
M  V30 COUNTS 73 77 0 0 0
M  V30 BEGIN ATOM
M  V30 1 C  20.4489 36.1737 86.8824 0
M  V30 2 C  19.2842 36.3221 87.6338 0
M  V30 3 C  18.4604 37.4260 87.4276 0
M  V30 4 O  17.3153 37.5539 88.1658 0
M  V30 5 C  18.7980 38.3944 86.4874 0
M  V30 6 C  19.9604 38.2468 85.7338 0
M  V30 7 C  20.7904 37.1344 85.9237 0
M  V30 8 C  22.0850 37.0000 85.1217 0 CFG=1
M  V30 9 O  23.2040 36.9963 86.0120 0
M  V30 10 C  22.1518 35.7141 84.2656 0
M  V30 11 C  23.4725 35.6598 83.4799 0
M  V30 12 O  23.5534 35.1610 82.3597 0
M  V30 13 C  24.6430 36.3129 84.1545 0
M  V30 14 C  24.4220 36.9809 85.3687 0
M  V30 15 C  25.9367 36.3787 83.5952 0
M  V30 16 O  26.2701 35.7126 82.4436 0
M  V30 17 C  26.9267 37.1644 84.1945 0
M  V30 18 C  26.6601 37.8781 85.3724 0
M  V30 19 C  25.4295 37.6993 85.9925 0
M  V30 20 O  27.5211 38.7668 85.9862 0
M  V30 21 C  28.5321 39.4138 85.2595 0 CFG=1
M  V30 22 C  28.4188 40.9260 85.5503 0 CFG=1
M  V30 23 C  29.6090 41.6702 84.8816 0 CFG=1
M  V30 24 O  29.6283 43.0419 85.2439 0
M  V30 25 C  30.9705 41.0100 85.2137 0 CFG=2
M  V30 26 O  32.0368 41.5566 84.4463 0
M  V30 27 C  30.8970 39.4727 85.0199 0 CFG=2
M  V30 28 O  29.7686 38.9331 85.7113 0
M  V30 29 C  32.1513 38.7084 85.4986 0
M  V30 30 O  32.4854 38.9982 86.8430 0
M  V30 31 O  27.1660 41.3879 85.0262 0
M  V30 32 C  26.5345 42.4631 85.6791 0 CFG=1
M  V30 33 C  25.4414 43.0157 84.7474 0 CFG=2
M  V30 34 O  24.9282 44.2438 85.2434 0
M  V30 35 C  24.3410 41.9487 84.5368 0 CFG=2
M  V30 36 O  23.3143 42.3569 83.6430 0
M  V30 37 C  23.7814 41.5010 85.9006 0 CFG=1
M  V30 38 O  22.8320 40.4620 85.7277 0
M  V30 39 C  24.9491 41.0903 86.8331 0 CFG=1
M  V30 40 O  25.9768 42.0845 86.9174 0
M  V30 41 C  24.4993 40.7397 88.2611 0
M  V30 42 H  21.0842 35.3152 87.0500 0
M  V30 43 H  19.0160 35.5786 88.3711 0
M  V30 44 H  16.8870 38.4162 88.1033 0
M  V30 45 H  18.1645 39.2583 86.3425 0
M  V30 46 H  20.2183 39.0072 85.0110 0
M  V30 47 H  22.1482 37.8791 84.4709 0
M  V30 48 H  22.0848 34.8464 84.9163 0
M  V30 49 H  21.3339 35.7261 83.5471 0
M  V30 50 H  27.1768 35.8465 82.1588 0
M  V30 51 H  27.9008 37.2176 83.7341 0
M  V30 52 H  25.2186 38.1792 86.9350 0
M  V30 53 H  28.4810 39.2220 84.1866 0
M  V30 54 H  28.4330 41.0486 86.6371 0
M  V30 55 H  29.4539 41.6375 83.8025 0
M  V30 56 H  30.1679 43.5194 84.5883 0
M  V30 57 H  31.2008 41.2277 86.2588 0
M  V30 58 H  31.7760 42.4331 84.1078 0
M  V30 59 H  30.7818 39.2553 83.9560 0
M  V30 60 H  32.0043 37.6321 85.3876 0
M  V30 61 H  33.0077 38.9727 84.8768 0
M  V30 62 H  31.7504 38.7589 87.4276 0
M  V30 63 H  27.2568 43.2359 85.9462 0
M  V30 64 H  25.9157 43.2509 83.7932 0
M  V30 65 H  24.1551 44.4828 84.7196 0
M  V30 66 H  24.7989 41.0860 84.0481 0
M  V30 67 H  23.6819 42.9985 83.0224 0
M  V30 68 H  23.2443 42.3348 86.3567 0
M  V30 69 H  22.1671 40.7978 85.1176 0
M  V30 70 H  25.4213 40.2189 86.4020 0
M  V30 71 H  23.7415 39.9575 88.2569 0
M  V30 72 H  24.0810 41.6141 88.7650 0
M  V30 73 H  25.3405 40.3794 88.8549 0
M  V30 END ATOM
M  V30 BEGIN BOND
M  V30 1 2 1 2
M  V30 2 1 1 7
M  V30 3 1 1 42
M  V30 4 1 2 3
M  V30 5 1 2 43
M  V30 6 1 3 4
M  V30 7 2 3 5
M  V30 8 1 4 44
M  V30 9 1 5 6
M  V30 10 1 5 45
M  V30 11 2 6 7
M  V30 12 1 6 46
M  V30 13 1 7 8
M  V30 14 1 8 9
M  V30 15 1 8 10
M  V30 16 1 8 47
M  V30 17 1 9 14
M  V30 18 1 10 11
M  V30 19 1 10 48
M  V30 20 1 10 49
M  V30 21 2 11 12
M  V30 22 1 11 13
M  V30 23 2 13 14
M  V30 24 1 13 15
M  V30 25 1 14 19
M  V30 26 1 15 16
M  V30 27 2 15 17
M  V30 28 1 16 50
M  V30 29 1 17 18
M  V30 30 1 17 51
M  V30 31 2 18 19
M  V30 32 1 18 20
M  V30 33 1 19 52
M  V30 34 1 20 21
M  V30 35 1 21 22
M  V30 36 1 21 28
M  V30 37 1 21 53
M  V30 38 1 22 23
M  V30 39 1 22 31
M  V30 40 1 22 54
M  V30 41 1 23 24
M  V30 42 1 23 25
M  V30 43 1 23 55
M  V30 44 1 24 56
M  V30 45 1 25 26
M  V30 46 1 25 27
M  V30 47 1 25 57
M  V30 48 1 26 58
M  V30 49 1 27 28
M  V30 50 1 27 29
M  V30 51 1 27 59
M  V30 52 1 29 30
M  V30 53 1 29 60
M  V30 54 1 29 61
M  V30 55 1 30 62
M  V30 56 1 31 32
M  V30 57 1 32 33
M  V30 58 1 32 40
M  V30 59 1 32 63
M  V30 60 1 33 34
M  V30 61 1 33 35
M  V30 62 1 33 64
M  V30 63 1 34 65
M  V30 64 1 35 36
M  V30 65 1 35 37
M  V30 66 1 35 66
M  V30 67 1 36 67
M  V30 68 1 37 38
M  V30 69 1 37 39
M  V30 70 1 37 68
M  V30 71 1 38 69
M  V30 72 1 39 40
M  V30 73 1 39 41
M  V30 74 1 39 70
M  V30 75 1 41 71
M  V30 76 1 41 72
M  V30 77 1 41 73
M  V30 END BOND
M  V30 END CTAB
M  END
> <s_m_entry_id>
612

> <s_m_entry_name>
result.3435

> <s_m_Source_Path>
D:\OneDrive - zju.edu.cn\DOC\A-Finished\LCK_VS\Planet\LCK-8617

> <s_m_Source_File>
glide-dock_SP_top1262_2_pv.maegz

> <i_m_Source_File_Index>
612

> <PLANET_affinity>
7.025

> <i_lp_mmshare_version>
54117

> <i_f3d_flags>
0

> <s_epik_input>
W09IXWMxW2NIXVtjSF1jKFtjSF1bY0hdMSlbQ0BIXShbQ0gyXUMyPU8pT2MoYzIzKVtjSF1jKFtjSF1jM1tPSF0pT1tDQEhdNFtDQEBIXShbQ0BASF0oW09IXSlbQ0BIXShbT0hdKVtDQEhdKE80KVtDSDJdW09IXSlPW0NASF01W0NASF0oW09IXSlbQ0BIXShbT0hdKVtDQEBIXShbT0hdKVtDQEBIXShPNSlbQ0gzXQ==

> <s_epik_cmdline>
J2VwaWtfcHl0aG9uJywgJy1waCcsICc3LjAnLCAnLXRuJywgJzgnLCAnLW1hJywgJzUwMCcsICctaW1hZScsICc8aW5maWxlLm1hZT4nLCAnLW9tYWUnLCAnPG91dGZpbGUubWFlPic=

> <r_epik_Ionization_Penalty>
  0.0068

> <r_epik_Ionization_Penalty_Charging>
  0.0000

> <r_epik_Ionization_Penalty_Neutral>
  0.0068

> <r_epik_State_Penalty>
  0.0000

> <r_epik_Charging_Adjusted_Penalty>
0

> <i_epik_Tot_Q>
0

> <i_epik_Tot_abs_Q>
0

> <s_epik_Chemistry_Notes>
This compound contains an acetal/aminal-like group ( X-CH(R)-Y where X, Y are N, S, or O) that may be acid/base labile, releasing an aldehyde.

> <s_lp_Force_Field>
S-OPLS

> <r_lp_Energy>
31.6302

> <b_lp_Chiralities_Consistent>
1

> <s_lp_Variant>
O=C1C[C@@H](C2=CC=C(O)C=C2)OC3=CC(O[C@H]4[C@@H]([C@H]([C@@H]([C@@H](CO)O4)O)O...-1

> <s_i_glide_gridfile>
glide-grid_1

> <i_i_glide_lignum>
2679

> <i_i_glide_rotatable_bonds>
14

> <r_i_docking_score>
-7.88068456317783

> <r_i_glide_ligand_efficiency>
-0.192211818614093

> <r_i_glide_ligand_efficiency_sa>
-0.662788105929998

> <r_i_glide_ligand_efficiency_ln>
-1.67191345579403

> <r_i_glide_gscore>
-7.88068456317783

> <r_i_glide_lipo>
-2.73554377065139

> <r_i_glide_hbond>
-0.0442316177695951

> <r_i_glide_metal>
0

> <r_i_glide_rewards>
-0.524121231662361

> <r_i_glide_evdw>
-39.9098854064941

> <r_i_glide_ecoul>
-19.0232734680176

> <r_i_glide_erotb>
0.272197347432869

> <r_i_glide_esite>
0

> <r_i_glide_emodel>
-82.0313253229657

> <r_i_glide_energy>
-58.9331588745117

> <r_i_glide_einternal>
16.5458431243896

> <i_i_glide_confnum>
2

> <i_i_glide_posenum>
385

> <r_i_glide_eff_state_penalty>
0

> <r_lp_tautomer_probability>
1

> <s_m_subgroup_title>
glide-dock_SP_top1262_2_pv

> <s_m_subgroupid>
glide-dock_SP_top1262_2_pv

> <b_m_subgroup_collapsed>
0

$$$$
O=C(N)C1=CC=C(N(C(NC(C2=CC(C)=NN2CC)=O)=N3)C/C=C/CN4C5=C(N=C4NC(C6=CC(C)=NN6C...
                    3D
 Schrodinger Suite 2021-3.
  0  0  0     0  0            999 V3000
M  V30 BEGIN CTAB
M  V30 COUNTS 97 102 0 0 0
M  V30 BEGIN ATOM
M  V30 1 C  24.8452 37.3452 85.7349 0
M  V30 2 C  23.4829 37.4829 85.0401 0
M  V30 3 N  22.3944 37.2430 85.9918 0
M  V30 4 N  22.0832 35.9572 86.2249 0
M  V30 5 C  21.1009 35.9694 87.0885 0
M  V30 6 C  20.5440 34.6779 87.6265 0
M  V30 7 C  20.7292 37.2783 87.3840 0
M  V30 8 C  21.6319 38.1238 86.7529 0
M  V30 9 C  21.7136 39.5712 86.9030 0
M  V30 10 O  20.8579 40.1810 87.5595 0
M  V30 11 N  22.8641 40.1351 86.3566 0
M  V30 12 C  23.0872 41.3973 86.3188 0
M  V30 13 N  22.3091 42.4999 86.7589 0
M  V30 14 C  22.9601 43.7128 86.5640 0
M  V30 15 C  24.1768 43.4417 85.9626 0
M  V30 16 C  22.6022 45.0225 86.8654 0
M  V30 17 C  23.4334 46.0942 86.4989 0
M  V30 18 C  22.9910 47.5287 86.6859 0
M  V30 19 O  23.7839 48.4667 86.6361 0
M  V30 20 N  21.6828 47.7425 86.8520 0
M  V30 21 C  24.6768 45.8034 85.9147 0
M  V30 22 C  25.0501 44.4847 85.6430 0
M  V30 23 N  24.2430 42.0611 85.8139 0
M  V30 24 C  25.4644 41.3209 85.5118 0
M  V30 25 C  26.4303 41.3707 86.6760 0
M  V30 26 C  26.8688 40.3086 87.3700 0
M  V30 27 C  27.7881 40.3615 88.5786 0
M  V30 28 N  28.2725 41.6809 88.9975 0
M  V30 29 C  27.7241 42.3569 90.1328 0
M  V30 30 N  26.8346 41.9477 90.9703 0
M  V30 31 C  26.3856 42.7370 92.0375 0
M  V30 32 O  26.8400 43.8426 92.3475 0
M  V30 33 C  25.2642 42.1376 92.7474 0
M  V30 34 C  24.8376 40.8109 92.7966 0
M  V30 35 C  23.7228 40.7628 93.6424 0
M  V30 36 C  22.8517 39.5931 94.0359 0
M  V30 37 N  23.4787 41.9471 94.1467 0
M  V30 38 N  24.4104 42.7693 93.6415 0
M  V30 39 C  24.3211 44.1769 94.0435 0
M  V30 40 C  23.2586 44.9221 93.2153 0
M  V30 41 N  28.4314 43.5860 90.0740 0
M  V30 42 C  29.3124 43.6505 89.0033 0
M  V30 43 C  29.2230 42.4460 88.3169 0
M  V30 44 C  30.1690 44.6599 88.5716 0
M  V30 45 C  30.9514 44.4751 87.4264 0
M  V30 46 C  31.8527 45.5862 86.9459 0
M  V30 47 O  32.2830 46.4472 87.7103 0
M  V30 48 N  32.1388 45.6162 85.6432 0
M  V30 49 C  30.8756 43.2478 86.7459 0
M  V30 50 C  30.0118 42.2244 87.1770 0
M  V30 51 O  29.8484 41.0074 86.5422 0
M  V30 52 C  30.7192 40.5969 85.4862 0
M  V30 53 C  29.9540 39.6012 84.5990 0
M  V30 54 C  28.7982 40.2397 83.8093 0
M  V30 55 O  29.2834 41.1564 82.8470 0
M  V30 56 H  25.6614 37.6174 85.0616 0
M  V30 57 H  25.0180 36.3202 86.0640 0
M  V30 58 H  24.8983 37.9872 86.6133 0
M  V30 59 H  23.3557 38.4519 84.5655 0
M  V30 60 H  23.4028 36.7628 84.2232 0
M  V30 61 H  19.5452 34.7976 88.0456 0
M  V30 62 H  20.4827 33.9203 86.8480 0
M  V30 63 H  21.1751 34.2688 88.4139 0
M  V30 64 H  19.9316 37.5790 88.0437 0
M  V30 65 H  21.6664 45.2023 87.3605 0
M  V30 66 H  21.0336 46.9674 86.8428 0
M  V30 67 H  21.3294 48.6805 86.9519 0
M  V30 68 H  25.3526 46.6020 85.6431 0
M  V30 69 H  26.0022 44.2883 85.1754 0
M  V30 70 H  25.2694 40.2964 85.1891 0
M  V30 71 H  25.9315 41.8387 84.6736 0
M  V30 72 H  26.7444 42.3626 86.9654 0
M  V30 73 H  26.5534 39.3211 87.0762 0
M  V30 74 H  27.2830 39.8334 89.3848 0
M  V30 75 H  28.6387 39.7155 88.3658 0
M  V30 76 H  25.2782 39.9812 92.2663 0
M  V30 77 H  22.7355 39.5277 95.1162 0
M  V30 78 H  21.8421 39.6853 93.6419 0
M  V30 79 H  23.2549 38.6393 93.6904 0
M  V30 80 H  24.0697 44.2226 95.1064 0
M  V30 81 H  25.2912 44.6634 93.9602 0
M  V30 82 H  23.2046 45.9716 93.5058 0
M  V30 83 H  23.4875 44.8868 92.1477 0
M  V30 84 H  22.2665 44.4897 93.3623 0
M  V30 85 H  28.2831 44.3215 90.7506 0
M  V30 86 H  30.2141 45.5917 89.1161 0
M  V30 87 H  31.6837 44.9906 84.9866 0
M  V30 88 H  32.7304 46.3475 85.2846 0
M  V30 89 H  31.4954 43.1107 85.8755 0
M  V30 90 H  31.0728 41.4031 84.8479 0
M  V30 91 H  31.5991 40.1222 85.9233 0
M  V30 92 H  30.6412 39.1105 83.9085 0
M  V30 93 H  29.5568 38.8058 85.2317 0
M  V30 94 H  28.1781 39.4806 83.3304 0
M  V30 95 H  28.1555 40.8026 84.4848 0
M  V30 96 H  29.8532 41.8081 83.2724 0
M  V30 97 H  21.3922 42.3956 87.1758 0
M  V30 END ATOM
M  V30 BEGIN BOND
M  V30 1 1 1 2
M  V30 2 1 1 56
M  V30 3 1 1 57
M  V30 4 1 1 58
M  V30 5 1 2 3
M  V30 6 1 2 59
M  V30 7 1 2 60
M  V30 8 1 3 4
M  V30 9 1 3 8
M  V30 10 2 4 5
M  V30 11 1 5 6
M  V30 12 1 5 7
M  V30 13 1 6 61
M  V30 14 1 6 62
M  V30 15 1 6 63
M  V30 16 2 7 8
M  V30 17 1 7 64
M  V30 18 1 8 9
M  V30 19 2 9 10
M  V30 20 1 9 11
M  V30 21 2 11 12
M  V30 22 1 12 13
M  V30 23 1 12 23
M  V30 24 1 13 14
M  V30 25 1 13 97
M  V30 26 2 14 15
M  V30 27 1 14 16
M  V30 28 1 15 22
M  V30 29 1 15 23
M  V30 30 2 16 17
M  V30 31 1 16 65
M  V30 32 1 17 18
M  V30 33 1 17 21
M  V30 34 2 18 19
M  V30 35 1 18 20
M  V30 36 1 20 66
M  V30 37 1 20 67
M  V30 38 2 21 22
M  V30 39 1 21 68
M  V30 40 1 22 69
M  V30 41 1 23 24
M  V30 42 1 24 25
M  V30 43 1 24 70
M  V30 44 1 24 71
M  V30 45 2 25 26
M  V30 46 1 25 72
M  V30 47 1 26 27
M  V30 48 1 26 73
M  V30 49 1 27 28
M  V30 50 1 27 74
M  V30 51 1 27 75
M  V30 52 1 28 29
M  V30 53 1 28 43
M  V30 54 2 29 30
M  V30 55 1 29 41
M  V30 56 1 30 31
M  V30 57 2 31 32
M  V30 58 1 31 33
M  V30 59 2 33 34
M  V30 60 1 33 38
M  V30 61 1 34 35
M  V30 62 1 34 76
M  V30 63 1 35 36
M  V30 64 2 35 37
M  V30 65 1 36 77
M  V30 66 1 36 78
M  V30 67 1 36 79
M  V30 68 1 37 38
M  V30 69 1 38 39
M  V30 70 1 39 40
M  V30 71 1 39 80
M  V30 72 1 39 81
M  V30 73 1 40 82
M  V30 74 1 40 83
M  V30 75 1 40 84
M  V30 76 1 41 42
M  V30 77 1 41 85
M  V30 78 2 42 43
M  V30 79 1 42 44
M  V30 80 1 43 50
M  V30 81 2 44 45
M  V30 82 1 44 86
M  V30 83 1 45 46
M  V30 84 1 45 49
M  V30 85 2 46 47
M  V30 86 1 46 48
M  V30 87 1 48 87
M  V30 88 1 48 88
M  V30 89 2 49 50
M  V30 90 1 49 89
M  V30 91 1 50 51
M  V30 92 1 51 52
M  V30 93 1 52 53
M  V30 94 1 52 90
M  V30 95 1 52 91
M  V30 96 1 53 54
M  V30 97 1 53 92
M  V30 98 1 53 93
M  V30 99 1 54 55
M  V30 100 1 54 94
M  V30 101 1 54 95
M  V30 102 1 55 96
M  V30 END BOND
M  V30 END CTAB
M  END
> <s_m_entry_id>
618

> <s_m_entry_name>
result.4611

> <s_m_Source_Path>
D:\OneDrive - zju.edu.cn\DOC\A-Finished\LCK_VS\Planet\LCK-8617

> <s_m_Source_File>
glide-dock_SP_top1262_2_pv.maegz

> <i_m_Source_File_Index>
618

> <PLANET_affinity>
11.232

> <i_lp_mmshare_version>
54117

> <i_f3d_flags>
0

> <s_epik_input>
W0NIM11bQ0gyXW4xbmMoW0NIM10pW2NIXWMxQyg9TylbTkhdYyhuMiluKGMoYzIzKVtjSF1bY0hdYyhbY0hdMylDKD1PKVtOSDJdKVtDSDJdL1tDSF09W0NIXS9bQ0gyXW4oYyhjNDUpYyhbY0hdYyhbY0hdNSlDKD1PKVtOSDJdKU9bQ0gyXVtDSDJdW0NIMl1bT0hdKS9jKFtuSF00KT1OL0MoPU8pYzZbY0hdYyhbQ0gzXSlubjZbQ0gyXVtDSDNd

> <s_epik_cmdline>
J2VwaWtfcHl0aG9uJywgJy1waCcsICc3LjAnLCAnLXRuJywgJzgnLCAnLW1hJywgJzUwMCcsICctaW1hZScsICc8aW5maWxlLm1hZT4nLCAnLW9tYWUnLCAnPG91dGZpbGUubWFlPic=

> <r_epik_Ionization_Penalty>
  0.1279

> <r_epik_Ionization_Penalty_Charging>
  0.1022

> <r_epik_Ionization_Penalty_Neutral>
  0.0257

> <r_epik_State_Penalty>
  0.0001

> <r_epik_Charging_Adjusted_Penalty>
0.10231

> <i_epik_Tot_Q>
0

> <i_epik_Tot_abs_Q>
0

> <s_lp_Force_Field>
S-OPLS

> <r_lp_Energy>
27.8083

> <b_lp_Chiralities_Consistent>
1

> <s_lp_Variant>
O=C(N)C1=CC=C(N(C(NC(C2=CC(C)=NN2CC)=O)=N3)C/C=C/CN4C5=C(N=C4NC(C6=CC(C)=NN6C...-1

> <s_i_glide_gridfile>
glide-grid_1

> <i_i_glide_lignum>
151

> <i_i_glide_rotatable_bonds>
17

> <r_i_docking_score>
-7.87079296949888

> <r_i_glide_ligand_efficiency>
-0.143105326718161

> <r_i_glide_ligand_efficiency_sa>
-0.544222753663934

> <r_i_glide_ligand_efficiency_ln>
-1.57185325568334

> <r_i_glide_gscore>
-7.87089296949888

> <r_i_glide_lipo>
-2.24139170618371

> <r_i_glide_hbond>
-0.480829775846504

> <r_i_glide_metal>
0

> <r_i_glide_rewards>
-0.57274862542945

> <r_i_glide_evdw>
-56.5023880004883

> <r_i_glide_ecoul>
-11.7562847137451

> <r_i_glide_erotb>
0.267857711786849

> <r_i_glide_esite>
-0.255218466739881

> <r_i_glide_emodel>
-102.116398184397

> <r_i_glide_energy>
-68.2586727142334

> <r_i_glide_einternal>
7.1936182975769

> <i_i_glide_confnum>
871

> <i_i_glide_posenum>
176

> <r_i_glide_eff_state_penalty>
0.0001

> <s_m_subgroup_title>
glide-dock_SP_top1262_2_pv

> <s_m_subgroupid>
glide-dock_SP_top1262_2_pv

> <b_m_subgroup_collapsed>
0

$$$$
O=C(C1=CC(NC/2=O)=C(C=C1)C2=C(C3=CC=CC=C3)\NC4=CC=C(CN5CCCCC5)C=C4)N(CC)C
                    3D
 Schrodinger Suite 2021-3.
  0  0  0     0  0            999 V3000
M  V30 BEGIN CTAB
M  V30 COUNTS 72 76 0 0 0
M  V30 BEGIN ATOM
M  V30 1 C  17.9505 38.2117 83.3820 0
M  V30 2 C  18.7847 38.7866 84.5397 0
M  V30 3 N  18.5998 38.0864 85.8197 0
M  V30 4 C  17.2300 38.1248 86.3478 0
M  V30 5 C  19.6100 37.5391 86.5450 0
M  V30 6 O  19.4586 37.0841 87.6795 0
M  V30 7 C  20.9774 37.4485 85.9235 0
M  V30 8 C  21.2203 36.5483 84.8803 0
M  V30 9 C  22.0276 38.2374 86.4076 0
M  V30 10 C  23.3081 38.1211 85.8625 0
M  V30 11 C  23.5594 37.1725 84.8635 0
M  V30 12 C  22.5159 36.4079 84.3885 0
M  V30 13 C  24.7657 36.7549 84.1280 0
M  V30 14 C  24.3186 35.6802 83.2377 0
M  V30 15 O  24.9753 35.0048 82.4435 0
M  V30 16 N  22.9965 35.5562 83.4261 0
M  V30 17 C  26.0562 37.1987 84.1689 0
M  V30 18 C  26.4437 38.3168 85.0565 0
M  V30 19 C  26.7080 39.5777 84.5097 0
M  V30 20 C  27.0956 40.6299 85.3366 0
M  V30 21 C  27.2156 40.4198 86.7087 0
M  V30 22 C  26.9472 39.1704 87.2636 0
M  V30 23 C  26.5575 38.1205 86.4373 0
M  V30 24 N  27.0780 36.6578 83.3886 0
M  V30 25 C  28.4836 36.7564 83.3510 0
M  V30 26 C  29.0935 36.0309 82.3278 0
M  V30 27 C  30.4654 36.0901 82.1321 0
M  V30 28 C  31.2604 36.8322 83.0019 0
M  V30 29 C  30.6711 37.5320 84.0557 0
M  V30 30 C  29.2903 37.4891 84.2354 0
M  V30 31 C  32.7606 36.9028 82.7669 0
M  V30 32 N  33.5720 35.7974 83.4879 0 CHG=1
M  V30 33 C  33.1787 34.3829 82.9844 0
M  V30 34 C  33.9936 33.3289 83.7510 0
M  V30 35 C  35.5103 33.5732 83.6484 0
M  V30 36 C  35.8845 35.0054 84.0747 0
M  V30 37 C  35.0871 36.0665 83.3021 0
M  V30 38 H  18.1987 38.7043 82.4439 0
M  V30 39 H  18.1378 37.1472 83.2504 0
M  V30 40 H  16.8829 38.3573 83.5408 0
M  V30 41 H  18.5182 39.8267 84.7209 0
M  V30 42 H  19.8293 38.8196 84.2290 0
M  V30 43 H  17.1336 37.6925 87.3454 0
M  V30 44 H  16.8828 39.1560 86.4109 0
M  V30 45 H  16.5500 37.5817 85.6931 0
M  V30 46 H  20.4102 35.9566 84.4881 0
M  V30 47 H  21.8543 38.9499 87.2013 0
M  V30 48 H  24.0780 38.7683 86.2464 0
M  V30 49 H  22.4456 34.8755 82.9230 0
M  V30 50 H  26.6193 39.7388 83.4444 0
M  V30 51 H  27.3012 41.6050 84.9155 0
M  V30 52 H  27.5165 41.2356 87.3494 0
M  V30 53 H  27.0393 39.0158 88.3286 0
M  V30 54 H  26.3421 37.1568 86.8725 0
M  V30 55 H  26.7454 36.0038 82.6893 0
M  V30 56 H  28.5028 35.4397 81.6435 0
M  V30 57 H  30.9067 35.5551 81.3047 0
M  V30 58 H  31.2801 38.1103 84.7371 0
M  V30 59 H  28.8910 38.0334 85.0729 0
M  V30 60 H  33.1641 37.8480 83.1355 0
M  V30 61 H  33.0064 36.8053 81.7061 0
M  V30 62 H  33.3608 34.3491 81.9081 0
M  V30 63 H  32.1148 34.2454 83.1772 0
M  V30 64 H  33.7588 32.3342 83.3698 0
M  V30 65 H  33.6836 33.3254 84.7992 0
M  V30 66 H  36.0384 32.8526 84.2762 0
M  V30 67 H  35.8468 33.3901 82.6246 0
M  V30 68 H  35.7154 35.1384 85.1467 0
M  V30 69 H  36.9536 35.1636 83.9236 0
M  V30 70 H  35.2949 36.0338 82.2307 0
M  V30 71 H  35.2921 37.0718 83.6773 0
M  V30 72 H  33.3660 35.8333 84.4777 0
M  V30 END ATOM
M  V30 BEGIN BOND
M  V30 1 1 1 2
M  V30 2 1 1 38
M  V30 3 1 1 39
M  V30 4 1 1 40
M  V30 5 1 2 3
M  V30 6 1 2 41
M  V30 7 1 2 42
M  V30 8 1 3 4
M  V30 9 1 3 5
M  V30 10 1 4 43
M  V30 11 1 4 44
M  V30 12 1 4 45
M  V30 13 2 5 6
M  V30 14 1 5 7
M  V30 15 2 7 8
M  V30 16 1 7 9
M  V30 17 1 8 12
M  V30 18 1 8 46
M  V30 19 2 9 10
M  V30 20 1 9 47
M  V30 21 1 10 11
M  V30 22 1 10 48
M  V30 23 2 11 12
M  V30 24 1 11 13
M  V30 25 1 12 16
M  V30 26 1 13 14
M  V30 27 2 13 17
M  V30 28 2 14 15
M  V30 29 1 14 16
M  V30 30 1 16 49
M  V30 31 1 17 18
M  V30 32 1 17 24
M  V30 33 2 18 19
M  V30 34 1 18 23
M  V30 35 1 19 20
M  V30 36 1 19 50
M  V30 37 2 20 21
M  V30 38 1 20 51
M  V30 39 1 21 22
M  V30 40 1 21 52
M  V30 41 2 22 23
M  V30 42 1 22 53
M  V30 43 1 23 54
M  V30 44 1 24 25
M  V30 45 1 24 55
M  V30 46 2 25 26
M  V30 47 1 25 30
M  V30 48 1 26 27
M  V30 49 1 26 56
M  V30 50 2 27 28
M  V30 51 1 27 57
M  V30 52 1 28 29
M  V30 53 1 28 31
M  V30 54 2 29 30
M  V30 55 1 29 58
M  V30 56 1 30 59
M  V30 57 1 31 32
M  V30 58 1 31 60
M  V30 59 1 31 61
M  V30 60 1 32 33
M  V30 61 1 32 37
M  V30 62 1 32 72
M  V30 63 1 33 34
M  V30 64 1 33 62
M  V30 65 1 33 63
M  V30 66 1 34 35
M  V30 67 1 34 64
M  V30 68 1 34 65
M  V30 69 1 35 36
M  V30 70 1 35 66
M  V30 71 1 35 67
M  V30 72 1 36 37
M  V30 73 1 36 68
M  V30 74 1 36 69
M  V30 75 1 37 70
M  V30 76 1 37 71
M  V30 END BOND
M  V30 END CTAB
M  END
> <s_m_entry_id>
620

> <s_m_entry_name>
result.3833

> <s_m_Source_Path>
D:\OneDrive - zju.edu.cn\DOC\A-Finished\LCK_VS\Planet\LCK-8617

> <s_m_Source_File>
glide-dock_SP_top1262_2_pv.maegz

> <i_m_Source_File_Index>
620

> <PLANET_affinity>
8.859

> <i_lp_mmshare_version>
54117

> <i_f3d_flags>
0

> <s_epik_input>
W0NIM11bQ0gyXU4oW0NIM10pQyg9TyljKFtjSF1bY0hdMSlbY0hdYyhjMTIpW05IXUMoPU8pQ1wyPUMoXGMzW2NIXVtjSF1bY0hdW2NIXVtjSF0zKVtOSF1jNFtjSF1bY0hdYyhbY0hdW2NIXTQpW0NIMl1ONVtDSDJdW0NIMl1bQ0gyXVtDSDJdW0NIMl01

> <s_epik_cmdline>
J2VwaWtfcHl0aG9uJywgJy1waCcsICc3LjAnLCAnLXRuJywgJzgnLCAnLW1hJywgJzUwMCcsICctaW1hZScsICc8aW5maWxlLm1hZT4nLCAnLW9tYWUnLCAnPG91dGZpbGUubWFlPic=

> <r_epik_Ionization_Penalty>
  0.0102

> <r_epik_Ionization_Penalty_Charging>
  0.0100

> <r_epik_Ionization_Penalty_Neutral>
  0.0002

> <r_epik_State_Penalty>
  0.4183

> <r_epik_Charging_Adjusted_Penalty>
0.428311

> <i_epik_Tot_Q>
1

> <i_epik_Tot_abs_Q>
1

> <s_lp_Force_Field>
S-OPLS

> <r_lp_Energy>
72.121

> <b_lp_Chiralities_Consistent>
1

> <s_lp_Variant>
O=C(C1=CC(NC/2=O)=C(C=C1)C2=C(C3=CC=CC=C3)\NC4=CC=C(CN5CCCCC5)C=C4)N(CC)C-1

> <s_i_glide_gridfile>
glide-grid_1

> <i_i_glide_lignum>
571

> <i_i_glide_rotatable_bonds>
8

> <r_i_docking_score>
-7.86723907662941

> <r_i_glide_ligand_efficiency>
-0.212628083152146

> <r_i_glide_ligand_efficiency_sa>
-0.708523944100367

> <r_i_glide_ligand_efficiency_ln>
-1.70621972146925

> <r_i_glide_gscore>
-8.28553907662941

> <r_i_glide_lipo>
-3.40573321994255

> <r_i_glide_hbond>
-0.373830788923704

> <r_i_glide_metal>
0

> <r_i_glide_rewards>
-1.51321986049637

> <r_i_glide_evdw>
-49.2812004089355

> <r_i_glide_ecoul>
-6.2356276512146

> <r_i_glide_erotb>
0.406648960862179

> <r_i_glide_esite>
0

> <r_i_glide_emodel>
-86.060872094937

> <r_i_glide_energy>
-55.5168280601501

> <r_i_glide_einternal>
5.31462812423706

> <i_i_glide_confnum>
59

> <i_i_glide_posenum>
342

> <r_i_glide_eff_state_penalty>
0.4183

> <r_lp_tautomer_probability>
0.5

> <s_m_subgroup_title>
glide-dock_SP_top1262_2_pv

> <s_m_subgroupid>
glide-dock_SP_top1262_2_pv

> <b_m_subgroup_collapsed>
0

$$$$
O=C1C2=C(O)C(O)=C(O[C@@H]3O[C@@H]([C@@H](O)[C@H](O)[C@H]3O)CO)C=C2OC(C4=CC(O)...
                    3D
 Schrodinger Suite 2021-3.
  0  0  0     0  0            999 V3000
M  V30 BEGIN CTAB
M  V30 COUNTS 54 57 0 0 0
M  V30 BEGIN ATOM
M  V30 1 C  29.8129 38.1235 83.9365 0
M  V30 2 C  30.9172 38.9754 83.8992 0
M  V30 3 C  30.7521 40.3529 84.0424 0
M  V30 4 O  31.8620 41.1566 83.9555 0
M  V30 5 C  29.4683 40.8734 84.2622 0
M  V30 6 O  29.2458 42.2162 84.4436 0
M  V30 7 C  28.3703 40.0141 84.2883 0
M  V30 8 C  28.5180 38.6311 84.1084 0
M  V30 9 C  27.3050 37.7747 84.0242 0
M  V30 10 C  27.1398 36.6738 83.2517 0
M  V30 11 C  25.8497 35.9617 83.1837 0
M  V30 12 O  25.6756 34.9683 82.4692 0
M  V30 13 O  28.1078 36.1494 82.4436 0
M  V30 14 O  26.3489 38.2406 84.8684 0
M  V30 15 C  25.0934 37.6802 84.8409 0
M  V30 16 C  24.7655 36.5857 84.0304 0
M  V30 17 C  24.1555 38.2948 85.6561 0
M  V30 18 C  22.8307 37.8498 85.6786 0
M  V30 19 C  22.4666 36.7748 84.8619 0
M  V30 20 O  21.1538 36.3566 84.8514 0
M  V30 21 C  23.4227 36.1554 84.0402 0
M  V30 22 O  23.0006 35.1558 83.2074 0
M  V30 23 O  21.8658 38.4110 86.4972 0
M  V30 24 C  21.7669 39.8074 86.5637 0 CFG=2
M  V30 25 O  22.8266 40.3295 87.3180 0
M  V30 26 C  22.8950 41.7565 87.2694 0 CFG=2
M  V30 27 C  24.2598 42.1963 87.8464 0
M  V30 28 O  25.3246 41.7798 87.0102 0
M  V30 29 C  21.6857 42.3023 88.0609 0 CFG=1
M  V30 30 O  21.6828 43.7231 88.0435 0
M  V30 31 C  20.3572 41.6793 87.5524 0 CFG=2
M  V30 32 O  19.2861 41.9572 88.4435 0
M  V30 33 C  20.4540 40.1505 87.2915 0 CFG=1
M  V30 34 O  19.3069 39.6791 86.5961 0
M  V30 35 H  29.9766 37.0640 83.8059 0
M  V30 36 H  31.9033 38.5643 83.7428 0
M  V30 37 H  31.6823 42.0700 83.6687 0
M  V30 38 H  29.9390 42.7921 84.0807 0
M  V30 39 H  27.3859 40.4364 84.4295 0
M  V30 40 H  27.7336 35.4670 81.8703 0
M  V30 41 H  24.4870 39.1159 86.2708 0
M  V30 42 H  20.6124 36.8890 85.4447 0
M  V30 43 H  22.0812 34.9136 83.3467 0
M  V30 44 H  21.8102 40.2248 85.5528 0
M  V30 45 H  22.8403 42.1131 86.2375 0
M  V30 46 H  24.4038 41.7830 88.8442 0
M  V30 47 H  24.3110 43.2812 87.9394 0
M  V30 48 H  25.3190 42.3157 86.2124 0
M  V30 49 H  21.8120 42.0158 89.1069 0
M  V30 50 H  20.9165 44.0593 87.5504 0
M  V30 51 H  20.1155 42.1544 86.6037 0
M  V30 52 H  18.6747 42.6002 88.0413 0
M  V30 53 H  20.4822 39.6218 88.2454 0
M  V30 54 H  18.5295 40.1265 86.9512 0
M  V30 END ATOM
M  V30 BEGIN BOND
M  V30 1 2 1 2
M  V30 2 1 1 8
M  V30 3 1 1 35
M  V30 4 1 2 3
M  V30 5 1 2 36
M  V30 6 1 3 4
M  V30 7 2 3 5
M  V30 8 1 4 37
M  V30 9 1 5 6
M  V30 10 1 5 7
M  V30 11 1 6 38
M  V30 12 2 7 8
M  V30 13 1 7 39
M  V30 14 1 8 9
M  V30 15 2 9 10
M  V30 16 1 9 14
M  V30 17 1 10 11
M  V30 18 1 10 13
M  V30 19 2 11 12
M  V30 20 1 11 16
M  V30 21 1 13 40
M  V30 22 1 14 15
M  V30 23 2 15 16
M  V30 24 1 15 17
M  V30 25 1 16 21
M  V30 26 2 17 18
M  V30 27 1 17 41
M  V30 28 1 18 19
M  V30 29 1 18 23
M  V30 30 1 19 20
M  V30 31 2 19 21
M  V30 32 1 20 42
M  V30 33 1 21 22
M  V30 34 1 22 43
M  V30 35 1 23 24
M  V30 36 1 24 25
M  V30 37 1 24 33
M  V30 38 1 24 44
M  V30 39 1 25 26
M  V30 40 1 26 27
M  V30 41 1 26 29
M  V30 42 1 26 45
M  V30 43 1 27 28
M  V30 44 1 27 46
M  V30 45 1 27 47
M  V30 46 1 28 48
M  V30 47 1 29 30
M  V30 48 1 29 31
M  V30 49 1 29 49
M  V30 50 1 30 50
M  V30 51 1 31 32
M  V30 52 1 31 33
M  V30 53 1 31 51
M  V30 54 1 32 52
M  V30 55 1 33 34
M  V30 56 1 33 53
M  V30 57 1 34 54
M  V30 END BOND
M  V30 END CTAB
M  END
> <s_m_entry_id>
623

> <s_m_entry_name>
result.3501

> <s_m_Source_Path>
D:\OneDrive - zju.edu.cn\DOC\A-Finished\LCK_VS\Planet\LCK-8617

> <s_m_Source_File>
glide-dock_SP_top1262_2_pv.maegz

> <i_m_Source_File_Index>
623

> <PLANET_affinity>
7.636

> <i_lp_mmshare_version>
54117

> <i_f3d_flags>
0

> <s_epik_input>
W09IXWMxW2NIXVtjSF1jKFtjSF1jMVtPSF0pLWMobzIpYyhbT0hdKWMoPU8pYyhjMjMpYyhbT0hdKWMoW09IXSljKFtjSF0zKU9bQ0BASF00T1tDQEhdKFtDSDJdW09IXSlbQ0BASF0oW09IXSlbQ0BIXShbT0hdKVtDQEhdNFtPSF0=

> <s_epik_cmdline>
J2VwaWtfcHl0aG9uJywgJy1waCcsICc3LjAnLCAnLXRuJywgJzgnLCAnLW1hJywgJzUwMCcsICctaW1hZScsICc8aW5maWxlLm1hZT4nLCAnLW9tYWUnLCAnPG91dGZpbGUubWFlPic=

> <r_epik_Ionization_Penalty>
  0.0133

> <r_epik_Ionization_Penalty_Charging>
  0.0000

> <r_epik_Ionization_Penalty_Neutral>
  0.0133

> <r_epik_State_Penalty>
  0.0046

> <r_epik_Charging_Adjusted_Penalty>
0.00457177

> <i_epik_Tot_Q>
0

> <i_epik_Tot_abs_Q>
0

> <s_epik_Chemistry_Notes>
This compound contains an acetal/aminal-like group ( X-CH(R)-Y where X, Y are N, S, or O) that may be acid/base labile, releasing an aldehyde.

> <s_lp_Force_Field>
S-OPLS

> <r_lp_Energy>
39.8208

> <b_lp_Chiralities_Consistent>
1

> <s_lp_Variant>
O=C1C2=C(O)C(O)=C(O[C@@H]3O[C@@H]([C@@H](O)[C@H](O)[C@H]3O)CO)C=C2OC(C4=CC(O)...-1

> <s_i_glide_gridfile>
glide-grid_1

> <i_i_glide_lignum>
1747

> <i_i_glide_rotatable_bonds>
13

> <r_i_docking_score>
-7.8656024438584

> <r_i_glide_ligand_efficiency>
-0.231341248348777

> <r_i_glide_ligand_efficiency_sa>
-0.749455837392011

> <r_i_glide_ligand_efficiency_ln>
-1.73773220252388

> <r_i_glide_gscore>
-7.8702024438584

> <r_i_glide_lipo>
-2.09897505141141

> <r_i_glide_hbond>
-0.32

> <r_i_glide_metal>
0

> <r_i_glide_rewards>
-0.695435605672465

> <r_i_glide_evdw>
-31.0944232940674

> <r_i_glide_ecoul>
-23.6838607788086

> <r_i_glide_erotb>
0.351508494750134

> <r_i_glide_esite>
0

> <r_i_glide_emodel>
-78.7610572396328

> <r_i_glide_energy>
-54.778284072876

> <r_i_glide_einternal>
12.1532363891602

> <i_i_glide_confnum>
8

> <i_i_glide_posenum>
247

> <r_i_glide_eff_state_penalty>
0.0046

> <r_lp_tautomer_probability>
1

> <s_m_subgroup_title>
glide-dock_SP_top1262_2_pv

> <s_m_subgroupid>
glide-dock_SP_top1262_2_pv

> <b_m_subgroup_collapsed>
0

$$$$
O=S(C1=CC=C(C2=CC=CN3C2=NC(NC4=CC=CC(N5CCN(C)CC5)=C4)=N3)C=C1)(C)=O
                    3D
 Schrodinger Suite 2021-3.
  0  0  0     0  0            999 V3000
M  V30 BEGIN CTAB
M  V30 COUNTS 60 64 0 0 0
M  V30 BEGIN ATOM
M  V30 1 O  24.4394 41.9018 89.7450 0
M  V30 2 S  25.5786 41.0068 89.5059 0
M  V30 3 O  26.0836 40.1485 90.5837 0
M  V30 4 C  27.0080 42.0272 88.8392 0
M  V30 5 C  25.1575 39.9359 88.1395 0
M  V30 6 C  23.9867 40.1424 87.4063 0
M  V30 7 C  23.6503 39.2612 86.3817 0
M  V30 8 C  24.4708 38.1648 86.0829 0
M  V30 9 C  25.6590 37.9926 86.8097 0
M  V30 10 C  26.0045 38.8717 87.8296 0
M  V30 11 C  24.0833 37.2027 85.0098 0
M  V30 12 C  22.7421 36.8288 84.7972 0
M  V30 13 C  22.3684 35.9586 83.7706 0
M  V30 14 C  23.3329 35.4178 82.9258 0
M  V30 15 C  25.0490 36.6356 84.1455 0
M  V30 16 N  24.6378 35.7560 83.1427 0
M  V30 17 N  26.3895 36.7723 84.0436 0
M  V30 18 C  26.6949 36.0035 83.0180 0
M  V30 19 N  25.7087 35.3415 82.4434 0
M  V30 20 N  27.9758 35.8376 82.5663 0
M  V30 21 C  29.1682 36.4457 82.9969 0
M  V30 22 C  29.2197 37.7039 83.6135 0
M  V30 23 C  30.4461 38.2636 83.9641 0
M  V30 24 C  31.6273 37.5652 83.7158 0
M  V30 25 C  31.6023 36.2941 83.1248 0
M  V30 26 C  30.3588 35.7565 82.7603 0
M  V30 27 N  32.7774 35.5754 82.9192 0
M  V30 28 C  33.9975 35.7311 83.7261 0
M  V30 29 C  34.5772 34.3860 84.1984 0
M  V30 30 N  34.8827 33.4957 82.9779 0 CHG=1
M  V30 31 C  35.4535 32.1391 83.4419 0
M  V30 32 C  33.5696 33.2901 82.1956 0
M  V30 33 C  33.0102 34.6674 81.7835 0
M  V30 34 H  27.3200 42.7268 89.6120 0
M  V30 35 H  27.8309 41.3613 88.5821 0
M  V30 36 H  26.6707 42.5705 87.9577 0
M  V30 37 H  23.3307 40.9720 87.6335 0
M  V30 38 H  22.7427 39.4357 85.8203 0
M  V30 39 H  26.3131 37.1570 86.6052 0
M  V30 40 H  26.9117 38.7130 88.3964 0
M  V30 41 H  21.9652 37.2336 85.4341 0
M  V30 42 H  21.3270 35.7185 83.6119 0
M  V30 43 H  23.1160 34.7566 82.1012 0
M  V30 44 H  28.1216 35.1357 81.8563 0
M  V30 45 H  28.3248 38.2813 83.7975 0
M  V30 46 H  30.4877 39.2435 84.4202 0
M  V30 47 H  32.5641 38.0311 83.9861 0
M  V30 48 H  30.3037 34.7735 82.3116 0
M  V30 49 H  33.7894 36.3287 84.6134 0
M  V30 50 H  34.7312 36.3037 83.1572 0
M  V30 51 H  35.5160 34.5216 84.7380 0
M  V30 52 H  33.8802 33.8469 84.8413 0
M  V30 53 H  34.6987 31.6328 84.0435 0
M  V30 54 H  35.7007 31.5620 82.5511 0
M  V30 55 H  36.3470 32.3359 84.0351 0
M  V30 56 H  33.8017 32.6769 81.3245 0
M  V30 57 H  32.8835 32.7453 82.8471 0
M  V30 58 H  33.6649 35.1632 81.0648 0
M  V30 59 H  32.0824 34.5075 81.2433 0
M  V30 60 H  35.5480 33.9737 82.3835 0
M  V30 END ATOM
M  V30 BEGIN BOND
M  V30 1 2 1 2
M  V30 2 2 2 3
M  V30 3 1 2 4
M  V30 4 1 2 5
M  V30 5 1 4 34
M  V30 6 1 4 35
M  V30 7 1 4 36
M  V30 8 2 5 6
M  V30 9 1 5 10
M  V30 10 1 6 7
M  V30 11 1 6 37
M  V30 12 2 7 8
M  V30 13 1 7 38
M  V30 14 1 8 9
M  V30 15 1 8 11
M  V30 16 2 9 10
M  V30 17 1 9 39
M  V30 18 1 10 40
M  V30 19 2 11 12
M  V30 20 1 11 15
M  V30 21 1 12 13
M  V30 22 1 12 41
M  V30 23 2 13 14
M  V30 24 1 13 42
M  V30 25 1 14 16
M  V30 26 1 14 43
M  V30 27 1 15 16
M  V30 28 2 15 17
M  V30 29 1 16 19
M  V30 30 1 17 18
M  V30 31 2 18 19
M  V30 32 1 18 20
M  V30 33 1 20 21
M  V30 34 1 20 44
M  V30 35 2 21 22
M  V30 36 1 21 26
M  V30 37 1 22 23
M  V30 38 1 22 45
M  V30 39 2 23 24
M  V30 40 1 23 46
M  V30 41 1 24 25
M  V30 42 1 24 47
M  V30 43 2 25 26
M  V30 44 1 25 27
M  V30 45 1 26 48
M  V30 46 1 27 28
M  V30 47 1 27 33
M  V30 48 1 28 29
M  V30 49 1 28 49
M  V30 50 1 28 50
M  V30 51 1 29 30
M  V30 52 1 29 51
M  V30 53 1 29 52
M  V30 54 1 30 31
M  V30 55 1 30 32
M  V30 56 1 30 60
M  V30 57 1 31 53
M  V30 58 1 31 54
M  V30 59 1 31 55
M  V30 60 1 32 33
M  V30 61 1 32 56
M  V30 62 1 32 57
M  V30 63 1 33 58
M  V30 64 1 33 59
M  V30 END BOND
M  V30 END CTAB
M  END
> <s_m_entry_id>
637

> <s_m_entry_name>
result.7709

> <s_m_Source_Path>
D:\OneDrive - zju.edu.cn\DOC\A-Finished\LCK_VS\Planet\LCK-8617

> <s_m_Source_File>
glide-dock_SP_top1262_2_pv.maegz

> <i_m_Source_File_Index>
637

> <PLANET_affinity>
7.759

> <i_lp_mmshare_version>
54117

> <i_f3d_flags>
0

> <s_epik_input>
Tz1TKD1PKShbQ0gzXSljMVtjSF1bY0hdYyhbY0hdW2NIXTEpLWMyW2NIXVtjSF1bY0hdbihjMjMpbmMobjMpW05IXWM0W2NIXVtjSF1bY0hdYyhbY0hdNClONVtDSDJdW0NIMl1OKFtDSDNdKVtDSDJdW0NIMl01

> <s_epik_cmdline>
J2VwaWtfcHl0aG9uJywgJy1waCcsICc3LjAnLCAnLXRuJywgJzgnLCAnLW1hJywgJzUwMCcsICctaW1hZScsICc8aW5maWxlLm1hZT4nLCAnLW9tYWUnLCAnPG91dGZpbGUubWFlPic=

> <r_epik_Ionization_Penalty>
  0.0674

> <r_epik_Ionization_Penalty_Charging>
  0.0647

> <r_epik_Ionization_Penalty_Neutral>
  0.0027

> <r_epik_State_Penalty>
  0.0564

> <r_epik_Charging_Adjusted_Penalty>
0.121171

> <i_epik_Tot_Q>
1

> <i_epik_Tot_abs_Q>
1

> <s_lp_Force_Field>
S-OPLS

> <r_lp_Energy>
44.0022

> <b_lp_Chiralities_Consistent>
1

> <s_lp_Variant>
O=S(C1=CC=C(C2=CC=CN3C2=NC(NC4=CC=CC(N5CCN(C)CC5)=C4)=N3)C=C1)(C)=O-1

> <s_i_glide_gridfile>
glide-grid_1

> <i_i_glide_lignum>
1553

> <i_i_glide_rotatable_bonds>
5

> <r_i_docking_score>
-7.84638324356992

> <r_i_glide_ligand_efficiency>
-0.237769189199088

> <r_i_glide_ligand_efficiency_sa>
-0.762652836082475

> <r_i_glide_ligand_efficiency_ln>
-1.74499500697179

> <r_i_glide_gscore>
-7.90278324356992

> <r_i_glide_lipo>
-2.25513659258107

> <r_i_glide_hbond>
-0.33625768327988

> <r_i_glide_metal>
0

> <r_i_glide_rewards>
-2.24019842195507

> <r_i_glide_evdw>
-41.137809753418

> <r_i_glide_ecoul>
-8.25204467773438

> <r_i_glide_erotb>
0.262573186250491

> <r_i_glide_esite>
-0.0390665426733425

> <r_i_glide_emodel>
-78.4457547076606

> <r_i_glide_energy>
-49.3898544311523

> <r_i_glide_einternal>
0.905508458614349

> <i_i_glide_confnum>
47

> <i_i_glide_posenum>
275

> <r_i_glide_eff_state_penalty>
0.0564

> <s_m_subgroup_title>
glide-dock_SP_top1262_2_pv

> <s_m_subgroupid>
glide-dock_SP_top1262_2_pv

> <b_m_subgroup_collapsed>
0

$$$$
O=C1NC2=CC=C(Cl)C=C2/C1=C\C3=CC=C(C4=CC=CC(C(N5CCCN(C)CC5)=O)=C4)O3.[H]Cl
                    3D
 Schrodinger Suite 2021-3.
  0  0  0     0  0            999 V3000
M  V30 BEGIN CTAB
M  V30 COUNTS 58 62 0 0 0
M  V30 BEGIN ATOM
M  V30 1 C  30.1671 36.4566 82.8433 0
M  V30 2 C  30.8461 37.4417 83.5666 0
M  V30 3 C  30.1442 38.2838 84.4370 0
M  V30 4 Cl 30.9895 39.4910 85.3358 0
M  V30 5 C  28.7610 38.1464 84.5872 0
M  V30 6 C  28.0877 37.1563 83.8668 0
M  V30 7 C  28.7893 36.3353 83.0171 0
M  V30 8 C  26.6862 36.7400 83.8069 0
M  V30 9 C  26.6348 35.6457 82.8438 0
M  V30 10 O  25.6826 34.9801 82.4434 0
M  V30 11 N  27.9032 35.4627 82.4436 0
M  V30 12 C  25.6410 37.2574 84.4923 0
M  V30 13 C  24.2073 36.9946 84.5359 0
M  V30 14 C  23.3227 36.0579 84.0045 0
M  V30 15 C  22.0341 36.4380 84.3817 0
M  V30 16 C  22.1593 37.5562 85.1829 0
M  V30 17 O  23.4760 37.8805 85.2617 0
M  V30 18 C  21.1949 38.4404 85.8984 0
M  V30 19 C  19.8153 38.2165 85.8220 0
M  V30 20 C  18.9225 39.0770 86.4642 0
M  V30 21 C  19.4024 40.1730 87.1805 0
M  V30 22 C  20.7792 40.4056 87.2705 0
M  V30 23 C  21.6665 39.5275 86.6419 0
M  V30 24 C  21.3006 41.6051 88.0108 0
M  V30 25 O  21.2830 41.5747 89.2444 0
M  V30 26 N  21.7436 42.6714 87.2861 0
M  V30 27 C  22.1687 43.8856 88.0088 0
M  V30 28 C  22.9119 44.9688 87.1971 0
M  V30 29 C  24.2521 44.5389 86.5729 0
M  V30 30 N  24.1072 43.7619 85.2436 0 CHG=1 CFG=1
M  V30 31 C  25.4944 43.4968 84.6110 0
M  V30 32 C  23.2887 42.4543 85.3098 0
M  V30 33 C  21.8528 42.6646 85.8152 0
M  V30 34 H  30.7108 35.8068 82.1723 0
M  V30 35 H  31.9147 37.5479 83.4550 0
M  V30 36 H  28.2347 38.8019 85.2648 0
M  V30 37 H  28.1467 34.7949 81.7249 0
M  V30 38 H  25.8951 38.0626 85.1643 0
M  V30 39 H  23.5492 35.2058 83.3865 0
M  V30 40 H  21.1135 35.9563 84.1005 0
M  V30 41 H  19.4263 37.3829 85.2559 0
M  V30 42 H  17.8567 38.9080 86.3990 0
M  V30 43 H  18.6926 40.8472 87.6431 0
M  V30 44 H  22.7295 39.7047 86.7151 0
M  V30 45 H  21.2737 44.3502 88.4331 0
M  V30 46 H  22.8083 43.5868 88.8444 0
M  V30 47 H  22.2423 45.3882 86.4437 0
M  V30 48 H  23.1108 45.8016 87.8723 0
M  V30 49 H  24.8266 45.4261 86.2986 0
M  V30 50 H  24.8528 43.9203 87.2417 0
M  V30 51 H  26.0662 42.8590 85.2883 0
M  V30 52 H  25.3340 43.0105 83.6462 0
M  V30 53 H  25.9835 44.4616 84.4658 0
M  V30 54 H  23.8585 41.7392 85.9077 0
M  V30 55 H  23.2626 42.0947 84.2789 0
M  V30 56 H  21.2306 41.8818 85.3861 0
M  V30 57 H  21.4207 43.5771 85.4041 0
M  V30 58 H  23.6079 44.3725 84.6029 0
M  V30 END ATOM
M  V30 BEGIN BOND
M  V30 1 2 1 2
M  V30 2 1 1 7
M  V30 3 1 1 34
M  V30 4 1 2 3
M  V30 5 1 2 35
M  V30 6 1 3 4
M  V30 7 2 3 5
M  V30 8 1 5 6
M  V30 9 1 5 36
M  V30 10 2 6 7
M  V30 11 1 6 8
M  V30 12 1 7 11
M  V30 13 1 8 9
M  V30 14 2 8 12
M  V30 15 2 9 10
M  V30 16 1 9 11
M  V30 17 1 11 37
M  V30 18 1 12 13
M  V30 19 1 12 38
M  V30 20 2 13 14
M  V30 21 1 13 17
M  V30 22 1 14 15
M  V30 23 1 14 39
M  V30 24 2 15 16
M  V30 25 1 15 40
M  V30 26 1 16 17
M  V30 27 1 16 18
M  V30 28 2 18 19
M  V30 29 1 18 23
M  V30 30 1 19 20
M  V30 31 1 19 41
M  V30 32 2 20 21
M  V30 33 1 20 42
M  V30 34 1 21 22
M  V30 35 1 21 43
M  V30 36 2 22 23
M  V30 37 1 22 24
M  V30 38 1 23 44
M  V30 39 2 24 25
M  V30 40 1 24 26
M  V30 41 1 26 27
M  V30 42 1 26 33
M  V30 43 1 27 28
M  V30 44 1 27 45
M  V30 45 1 27 46
M  V30 46 1 28 29
M  V30 47 1 28 47
M  V30 48 1 28 48
M  V30 49 1 29 30
M  V30 50 1 29 49
M  V30 51 1 29 50
M  V30 52 1 30 31
M  V30 53 1 30 32
M  V30 54 1 30 58
M  V30 55 1 31 51
M  V30 56 1 31 52
M  V30 57 1 31 53
M  V30 58 1 32 33
M  V30 59 1 32 54
M  V30 60 1 32 55
M  V30 61 1 33 56
M  V30 62 1 33 57
M  V30 END BOND
M  V30 END CTAB
M  END
> <s_m_entry_id>
640

> <s_m_entry_name>
result.1201

> <s_m_Source_Path>
D:\OneDrive - zju.edu.cn\DOC\A-Finished\LCK_VS\Planet\LCK-8617

> <s_m_Source_File>
glide-dock_SP_top1262_2_pv.maegz

> <i_m_Source_File_Index>
640

> <PLANET_affinity>
7.514

> <i_lp_mmshare_version>
54117

> <i_f3d_flags>
0

> <s_epik_input>
Q2xjKFtjSF0xKVtjSF1bY0hdYyhjMTIpW05IXUMoPU8pQ1wyPVtDSF0vYzNbY0hdW2NIXWMobzMpLWM0W2NIXVtjSF1bY0hdYyhbY0hdNClDKD1PKU41W0NIMl1bQ0gyXVtDSDJdTihbQ0gzXSlbQ0gyXVtDSDJdNQ==

> <s_epik_cmdline>
J2VwaWtfcHl0aG9uJywgJy1waCcsICc3LjAnLCAnLXRuJywgJzgnLCAnLW1hJywgJzUwMCcsICctaW1hZScsICc8aW5maWxlLm1hZT4nLCAnLW9tYWUnLCAnPG91dGZpbGUubWFlPic=

> <r_epik_Ionization_Penalty>
  0.0038

> <r_epik_Ionization_Penalty_Charging>
  0.0038

> <r_epik_Ionization_Penalty_Neutral>
  0.0000

> <r_epik_State_Penalty>
  0.0027

> <r_epik_Charging_Adjusted_Penalty>
0.0065509

> <i_epik_Tot_Q>
1

> <i_epik_Tot_abs_Q>
1

> <s_lp_Force_Field>
S-OPLS

> <r_lp_Energy>
54.4127

> <b_lp_Chiralities_Consistent>
1

> <s_lp_Variant>
O=C1NC2=CC=C(Cl)C=C2/C1=C\C3=CC=C(C4=CC=CC(C(N5CCCN(C)CC5)=O)=C4)O3.[H]Cl-2

> <s_i_glide_gridfile>
glide-grid_1

> <i_i_glide_lignum>
1918

> <i_i_glide_rotatable_bonds>
4

> <r_i_docking_score>
-7.84212096646332

> <r_i_glide_ligand_efficiency>
-0.237640029286767

> <r_i_glide_ligand_efficiency_sa>
-0.762238551230129

> <r_i_glide_ligand_efficiency_ln>
-1.74404709861218

> <r_i_glide_gscore>
-7.84482096646332

> <r_i_glide_lipo>
-2.34332545454982

> <r_i_glide_hbond>
-0.562448686866953

> <r_i_glide_metal>
0

> <r_i_glide_rewards>
-1.41299679924145

> <r_i_glide_evdw>
-39.4932441711426

> <r_i_glide_ecoul>
-11.5192785263062

> <r_i_glide_erotb>
0.376033117990037

> <r_i_glide_esite>
-0.199529156292087

> <r_i_glide_emodel>
-78.1834674912436

> <r_i_glide_energy>
-51.0125226974487

> <r_i_glide_einternal>
4.39681053161621

> <i_i_glide_confnum>
39

> <i_i_glide_posenum>
105

> <r_i_glide_eff_state_penalty>
0.0027

> <s_m_subgroup_title>
glide-dock_SP_top1262_2_pv

> <s_m_subgroupid>
glide-dock_SP_top1262_2_pv

> <b_m_subgroup_collapsed>
0

$$$$
O=C(N1C[C@H](CC2=NNC(N2C3=CC=C(C4=CC=C(OC=C5)C5=C4)C=C3)=O)CC1)C6CC6
                    3D
 Schrodinger Suite 2021-3.
  0  0  0     0  0            999 V3000
M  V30 BEGIN CTAB
M  V30 COUNTS 56 61 0 0 0
M  V30 BEGIN ATOM
M  V30 1 C  33.5802 37.0864 85.4747 0
M  V30 2 C  33.7702 38.1850 86.4877 0
M  V30 3 C  32.4084 37.9896 85.8340 0
M  V30 4 C  32.0177 39.0456 84.7626 0
M  V30 5 O  32.8936 39.5565 84.0583 0
M  V30 6 N  30.7142 39.3879 84.6308 0
M  V30 7 C  29.6243 38.7945 85.4114 0
M  V30 8 C  28.3493 39.4245 84.8195 0 CFG=1
M  V30 9 C  28.7606 40.0677 83.4989 0
M  V30 10 C  30.2527 40.3722 83.6431 0
M  V30 11 C  27.1271 38.4607 84.7894 0
M  V30 12 C  27.2269 37.2062 83.8922 0
M  V30 13 N  28.2580 36.8343 83.2648 0
M  V30 14 N  27.8819 35.7832 82.5717 0
M  V30 15 C  26.6478 35.3719 82.8447 0
M  V30 16 O  26.0834 34.3572 82.4434 0
M  V30 17 N  26.1759 36.3597 83.6441 0
M  V30 18 C  24.8237 36.4094 84.0991 0
M  V30 19 C  23.7789 35.9565 83.2722 0
M  V30 20 C  22.4517 36.0898 83.6516 0
M  V30 21 C  22.1310 36.6930 84.8677 0
M  V30 22 C  23.1586 37.0708 85.7334 0
M  V30 23 C  24.4867 36.9201 85.3610 0
M  V30 24 C  20.7226 36.9747 85.2280 0
M  V30 25 C  19.8845 37.6220 84.3080 0
M  V30 26 C  18.5690 37.9583 84.6146 0
M  V30 27 C  20.2471 36.6308 86.5013 0
M  V30 28 C  18.9277 36.9504 86.8435 0
M  V30 29 C  18.1238 37.6211 85.8936 0
M  V30 30 C  18.0886 36.7568 87.9783 0
M  V30 31 C  16.8819 37.3453 87.6488 0
M  V30 32 O  16.8836 37.8663 86.3929 0
M  V30 33 H  34.0572 37.1797 84.4955 0
M  V30 34 H  33.5514 36.0497 85.8132 0
M  V30 35 H  33.8735 37.9213 87.5414 0
M  V30 36 H  34.3770 39.0544 86.2237 0
M  V30 37 H  31.6089 37.5719 86.4423 0
M  V30 38 H  29.6370 37.7186 85.2358 0
M  V30 39 H  29.7090 39.0250 86.4753 0
M  V30 40 H  28.0709 40.2443 85.4880 0
M  V30 41 H  28.1956 40.9735 83.2777 0
M  V30 42 H  28.5925 39.3858 82.6682 0
M  V30 43 H  30.3803 41.3834 84.0419 0
M  V30 44 H  30.7627 40.2753 82.6835 0
M  V30 45 H  26.9971 38.1516 85.8222 0
M  V30 46 H  26.2373 39.0285 84.5136 0
M  V30 47 H  28.5495 35.3259 81.9656 0
M  V30 48 H  23.9709 35.5425 82.2929 0
M  V30 49 H  21.6797 35.7595 82.9721 0
M  V30 50 H  22.9282 37.5124 86.6914 0
M  V30 51 H  25.2252 37.2024 86.0873 0
M  V30 52 H  20.2731 37.8897 83.3364 0
M  V30 53 H  17.9240 38.4539 83.9052 0
M  V30 54 H  20.8838 36.1190 87.2076 0
M  V30 55 H  18.3230 36.2611 88.9071 0
M  V30 56 H  15.9598 37.4733 88.1973 0
M  V30 END ATOM
M  V30 BEGIN BOND
M  V30 1 1 1 2
M  V30 2 1 1 3
M  V30 3 1 1 33
M  V30 4 1 1 34
M  V30 5 1 2 3
M  V30 6 1 2 35
M  V30 7 1 2 36
M  V30 8 1 3 4
M  V30 9 1 3 37
M  V30 10 2 4 5
M  V30 11 1 4 6
M  V30 12 1 6 7
M  V30 13 1 6 10
M  V30 14 1 7 8
M  V30 15 1 7 38
M  V30 16 1 7 39
M  V30 17 1 8 9
M  V30 18 1 8 11
M  V30 19 1 8 40
M  V30 20 1 9 10
M  V30 21 1 9 41
M  V30 22 1 9 42
M  V30 23 1 10 43
M  V30 24 1 10 44
M  V30 25 1 11 12
M  V30 26 1 11 45
M  V30 27 1 11 46
M  V30 28 2 12 13
M  V30 29 1 12 17
M  V30 30 1 13 14
M  V30 31 1 14 15
M  V30 32 1 14 47
M  V30 33 2 15 16
M  V30 34 1 15 17
M  V30 35 1 17 18
M  V30 36 2 18 19
M  V30 37 1 18 23
M  V30 38 1 19 20
M  V30 39 1 19 48
M  V30 40 2 20 21
M  V30 41 1 20 49
M  V30 42 1 21 22
M  V30 43 1 21 24
M  V30 44 2 22 23
M  V30 45 1 22 50
M  V30 46 1 23 51
M  V30 47 2 24 25
M  V30 48 1 24 27
M  V30 49 1 25 26
M  V30 50 1 25 52
M  V30 51 2 26 29
M  V30 52 1 26 53
M  V30 53 2 27 28
M  V30 54 1 27 54
M  V30 55 1 28 29
M  V30 56 1 28 30
M  V30 57 1 29 32
M  V30 58 2 30 31
M  V30 59 1 30 55
M  V30 60 1 31 32
M  V30 61 1 31 56
M  V30 END BOND
M  V30 END CTAB
M  END
> <s_m_entry_id>
645

> <s_m_entry_name>
result.4026

> <s_m_Source_Path>
D:\OneDrive - zju.edu.cn\DOC\A-Finished\LCK_VS\Planet\LCK-8617

> <s_m_Source_File>
glide-dock_SP_top1262_2_pv.maegz

> <i_m_Source_File_Index>
645

> <PLANET_affinity>
7.215

> <i_lp_mmshare_version>
54117

> <i_f3d_flags>
0

> <s_epik_input>
W0NIMl0xW0NIMl1bQ0hdMUMoPU8pTjJbQ0gyXVtDQEBIXShbQ0gyXVtDSDJdMilbQ0gyXWMzbltuSF1jKD1PKW4zLWM0W2NIXVtjSF1jKFtjSF1bY0hdNCktYyhbY0hdNSlbY0hdW2NIXWMoYzU2KW9bY0hdW2NIXTY=

> <s_epik_cmdline>
J2VwaWtfcHl0aG9uJywgJy1waCcsICc3LjAnLCAnLXRuJywgJzgnLCAnLW1hJywgJzUwMCcsICctaW1hZScsICc8aW5maWxlLm1hZT4nLCAnLW9tYWUnLCAnPG91dGZpbGUubWFlPic=

> <r_epik_Ionization_Penalty>
  0.0000

> <r_epik_Ionization_Penalty_Charging>
  0.0000

> <r_epik_Ionization_Penalty_Neutral>
  0.0000

> <r_epik_State_Penalty>
  0.0000

> <r_epik_Charging_Adjusted_Penalty>
1.60162e-05

> <i_epik_Tot_Q>
0

> <i_epik_Tot_abs_Q>
0

> <s_lp_Force_Field>
S-OPLS

> <r_lp_Energy>
62.9245

> <b_lp_Chiralities_Consistent>
1

> <s_lp_Variant>
O=C(N1C[C@H](CC2=NNC(N2C3=CC=C(C4=CC=C(OC=C5)C5=C4)C=C3)=O)CC1)C6CC6-1

> <s_i_glide_gridfile>
glide-grid_1

> <i_i_glide_lignum>
2361

> <i_i_glide_rotatable_bonds>
6

> <r_i_docking_score>
-7.83613813674092

> <r_i_glide_ligand_efficiency>
-0.244879316773154

> <r_i_glide_ligand_efficiency_sa>
-0.777443369203778

> <r_i_glide_ligand_efficiency_ln>
-1.75472493387443

> <r_i_glide_gscore>
-7.83613813674092

> <r_i_glide_lipo>
-3.29767224185186

> <r_i_glide_hbond>
-0.325109034013338

> <r_i_glide_metal>
0

> <r_i_glide_rewards>
-2.06673705084653

> <r_i_glide_evdw>
-43.5192985534668

> <r_i_glide_ecoul>
-4.00103282928467

> <r_i_glide_erotb>
0.649161278507626

> <r_i_glide_esite>
-0.0196612364707758

> <r_i_glide_emodel>
-68.8594937034714

> <r_i_glide_energy>
-47.5203313827515

> <r_i_glide_einternal>
3.32142806053162

> <i_i_glide_confnum>
135

> <i_i_glide_posenum>
91

> <r_i_glide_eff_state_penalty>
0

> <r_lp_tautomer_probability>
1

> <s_m_subgroup_title>
glide-dock_SP_top1262_2_pv

> <s_m_subgroupid>
glide-dock_SP_top1262_2_pv

> <b_m_subgroup_collapsed>
0

$$$$
CN1N=CC(C2=CN=C(N)C3=C2SC=C3C4=CC5=C(N(C(CC6=CC=CC=C6)=O)CC5)C=C4)=C1
                    3D
 Schrodinger Suite 2021-3.
  0  0  0     0  0            999 V3000
M  V30 BEGIN CTAB
M  V30 COUNTS 57 62 0 0 0
M  V30 BEGIN ATOM
M  V30 1 C  19.5263 36.4742 87.4958 0
M  V30 2 N  20.4397 36.5368 86.3660 0
M  V30 3 N  19.9501 36.7762 85.1452 0
M  V30 4 C  21.0018 36.7570 84.3603 0
M  V30 5 C  22.1983 36.4853 85.0363 0
M  V30 6 C  21.7972 36.3430 86.3572 0
M  V30 7 C  23.5628 36.4015 84.4514 0
M  V30 8 C  23.8105 35.5630 83.3646 0
M  V30 9 N  25.0053 35.4677 82.7421 0
M  V30 10 C  26.0400 36.2281 83.1723 0
M  V30 11 N  27.2218 36.0828 82.4435 0
M  V30 12 C  24.6452 37.1859 84.9066 0
M  V30 13 C  25.9293 37.1320 84.2659 0
M  V30 14 S  24.6318 38.3567 86.2216 0
M  V30 15 C  26.2938 38.7456 85.9080 0
M  V30 16 C  26.8679 38.0658 84.8530 0
M  V30 17 C  28.2584 38.3506 84.4005 0
M  V30 18 C  29.2252 37.3436 84.3363 0
M  V30 19 C  28.5974 39.6499 84.0023 0
M  V30 20 C  29.8499 39.9143 83.4480 0
M  V30 21 C  30.7479 38.8581 83.2435 0
M  V30 22 C  30.4673 37.5987 83.7591 0
M  V30 23 N  32.0071 38.8428 82.6161 0
M  V30 24 C  32.6761 37.5558 82.8632 0
M  V30 25 C  31.6223 36.6716 83.5299 0
M  V30 26 C  32.4842 39.7537 81.7223 0
M  V30 27 O  31.8436 40.7557 81.3951 0
M  V30 28 C  33.8541 39.5420 81.0398 0
M  V30 29 C  34.8066 40.6967 81.3286 0
M  V30 30 C  35.5706 40.6962 82.5003 0
M  V30 31 C  36.4183 41.7656 82.7790 0
M  V30 32 C  36.4895 42.8380 81.8909 0
M  V30 33 C  35.7229 42.8484 80.7268 0
M  V30 34 C  34.8829 41.7753 80.4438 0
M  V30 35 H  20.0831 36.4784 88.4356 0
M  V30 36 H  18.8582 37.3392 87.4772 0
M  V30 37 H  18.9344 35.5594 87.4370 0
M  V30 38 H  20.9142 36.9471 83.3010 0
M  V30 39 H  22.3424 36.1259 87.2632 0
M  V30 40 H  23.0207 34.9416 82.9618 0
M  V30 41 H  28.0236 36.6473 82.6964 0
M  V30 42 H  27.2332 35.5571 81.5720 0
M  V30 43 H  26.7733 39.4966 86.5209 0
M  V30 44 H  28.9917 36.3566 84.6983 0
M  V30 45 H  27.8757 40.4500 84.0889 0
M  V30 46 H  30.0817 40.9220 83.1337 0
M  V30 47 H  32.9926 37.0677 81.9405 0
M  V30 48 H  33.5090 37.7299 83.5487 0
M  V30 49 H  31.3364 35.8692 82.8479 0
M  V30 50 H  32.0222 36.2308 84.4432 0
M  V30 51 H  33.6715 39.4689 79.9656 0
M  V30 52 H  34.3479 38.6160 81.3264 0
M  V30 53 H  35.5048 39.8708 83.1959 0
M  V30 54 H  37.0104 41.7654 83.6823 0
M  V30 55 H  37.1391 43.6726 82.1109 0
M  V30 56 H  35.7701 43.6872 80.0462 0
M  V30 57 H  34.2769 41.7963 79.5490 0
M  V30 END ATOM
M  V30 BEGIN BOND
M  V30 1 1 1 2
M  V30 2 1 1 35
M  V30 3 1 1 36
M  V30 4 1 1 37
M  V30 5 1 2 3
M  V30 6 1 2 6
M  V30 7 2 3 4
M  V30 8 1 4 5
M  V30 9 1 4 38
M  V30 10 2 5 6
M  V30 11 1 5 7
M  V30 12 1 6 39
M  V30 13 2 7 8
M  V30 14 1 7 12
M  V30 15 1 8 9
M  V30 16 1 8 40
M  V30 17 2 9 10
M  V30 18 1 10 11
M  V30 19 1 10 13
M  V30 20 1 11 41
M  V30 21 1 11 42
M  V30 22 2 12 13
M  V30 23 1 12 14
M  V30 24 1 13 16
M  V30 25 1 14 15
M  V30 26 2 15 16
M  V30 27 1 15 43
M  V30 28 1 16 17
M  V30 29 2 17 18
M  V30 30 1 17 19
M  V30 31 1 18 22
M  V30 32 1 18 44
M  V30 33 2 19 20
M  V30 34 1 19 45
M  V30 35 1 20 21
M  V30 36 1 20 46
M  V30 37 2 21 22
M  V30 38 1 21 23
M  V30 39 1 22 25
M  V30 40 1 23 24
M  V30 41 1 23 26
M  V30 42 1 24 25
M  V30 43 1 24 47
M  V30 44 1 24 48
M  V30 45 1 25 49
M  V30 46 1 25 50
M  V30 47 2 26 27
M  V30 48 1 26 28
M  V30 49 1 28 29
M  V30 50 1 28 51
M  V30 51 1 28 52
M  V30 52 2 29 30
M  V30 53 1 29 34
M  V30 54 1 30 31
M  V30 55 1 30 53
M  V30 56 2 31 32
M  V30 57 1 31 54
M  V30 58 1 32 33
M  V30 59 1 32 55
M  V30 60 2 33 34
M  V30 61 1 33 56
M  V30 62 1 34 57
M  V30 END BOND
M  V30 END CTAB
M  END
> <s_m_entry_id>
649

> <s_m_entry_name>
result.3803

> <s_m_Source_Path>
D:\OneDrive - zju.edu.cn\DOC\A-Finished\LCK_VS\Planet\LCK-8617

> <s_m_Source_File>
glide-dock_SP_top1262_2_pv.maegz

> <i_m_Source_File_Index>
649

> <PLANET_affinity>
7.684

> <i_lp_mmshare_version>
54117

> <i_f3d_flags>
0

> <s_epik_input>
W0NIM11uMW5bY0hdYyhbY0hdMSktYzJbY0hdbmMoW05IMl0pYyhjMjMpYyhbY0hdczMpLWMoW2NIXVtjSF00KVtjSF1jKGM0NSlbQ0gyXVtDSDJdTjVDKD1PKVtDSDJdYzZbY0hdW2NIXVtjSF1bY0hdW2NIXTY=

> <s_epik_cmdline>
J2VwaWtfcHl0aG9uJywgJy1waCcsICc3LjAnLCAnLXRuJywgJzgnLCAnLW1hJywgJzUwMCcsICctaW1hZScsICc8aW5maWxlLm1hZT4nLCAnLW9tYWUnLCAnPG91dGZpbGUubWFlPic=

> <r_epik_Ionization_Penalty>
  0.5045

> <r_epik_Ionization_Penalty_Charging>
  0.0000

> <r_epik_Ionization_Penalty_Neutral>
  0.5045

> <r_epik_State_Penalty>
  0.5111

> <r_epik_Charging_Adjusted_Penalty>
0.511126

> <i_epik_Tot_Q>
0

> <i_epik_Tot_abs_Q>
0

> <s_lp_Force_Field>
S-OPLS

> <r_lp_Energy>
56.1372

> <b_lp_Chiralities_Consistent>
1

> <s_lp_Variant>
CN1N=CC(C2=CN=C(N)C3=C2SC=C3C4=CC5=C(N(C(CC6=CC=CC=C6)=O)CC5)C=C4)=C1-2

> <s_i_glide_gridfile>
glide-grid_1

> <i_i_glide_lignum>
1681

> <i_i_glide_rotatable_bonds>
5

> <r_i_docking_score>
-7.83280790860774

> <r_i_glide_ligand_efficiency>
-0.230376703194345

> <r_i_glide_ligand_efficiency_sa>
-0.746331085530524

> <r_i_glide_ligand_efficiency_ln>
-1.73048696983146

> <r_i_glide_gscore>
-8.34390790860774

> <r_i_glide_lipo>
-3.64218960297367

> <r_i_glide_hbond>
-0.473808464026812

> <r_i_glide_metal>
0

> <r_i_glide_rewards>
-1.6036986182839

> <r_i_glide_evdw>
-45.2258415222168

> <r_i_glide_ecoul>
-5.52096796035767

> <r_i_glide_erotb>
0.465226046841133

> <r_i_glide_esite>
0

> <r_i_glide_emodel>
-76.5237084238701

> <r_i_glide_energy>
-50.7468094825745

> <r_i_glide_einternal>
4.01551485061646

> <i_i_glide_confnum>
117

> <i_i_glide_posenum>
384

> <r_i_glide_eff_state_penalty>
0.5111

> <r_lp_tautomer_probability>
1

> <s_m_subgroup_title>
glide-dock_SP_top1262_2_pv

> <s_m_subgroupid>
glide-dock_SP_top1262_2_pv

> <b_m_subgroup_collapsed>
0

$$$$
O=C(C(N=C1N2C=CC=C1)=CC2=O)NCC3=CN4C=C(CNCC5CCCCC5)C=CC4=N3
                    3D
 Schrodinger Suite 2021-3.
  0  0  0     0  0            999 V3000
M  V30 BEGIN CTAB
M  V30 COUNTS 62 66 0 0 0
M  V30 BEGIN ATOM
M  V30 1 C  19.3937 36.7547 87.8007 0
M  V30 2 C  18.0829 36.5728 88.0440 0
M  V30 3 C  17.0887 37.2113 87.2009 0
M  V30 4 C  17.5437 37.9307 86.1578 0
M  V30 5 N  18.8918 38.1181 85.8731 0
M  V30 6 C  19.8654 37.6020 86.7418 0
M  V30 7 C  19.2290 38.7209 84.6950 0
M  V30 8 O  18.5084 38.7585 83.6940 0
M  V30 9 C  20.5903 39.2240 84.7216 0
M  V30 10 C  21.5047 38.7600 85.6159 0
M  V30 11 N  21.1181 37.8630 86.5836 0
M  V30 12 C  22.8852 39.2648 85.5864 0
M  V30 13 O  23.2820 40.0716 84.7392 0
M  V30 14 N  23.7172 38.7832 86.5347 0
M  V30 15 C  25.1464 39.1108 86.6526 0
M  V30 16 C  26.0659 38.3510 85.6959 0
M  V30 17 C  27.4561 38.4633 85.5899 0
M  V30 18 N  25.5889 37.4548 84.8459 0
M  V30 19 C  26.6628 36.9580 84.1909 0
M  V30 20 N  27.8478 37.5574 84.6384 0
M  V30 21 C  26.7464 35.9514 83.2171 0
M  V30 22 C  28.0063 35.5729 82.7495 0
M  V30 23 C  29.1746 36.1957 83.1891 0
M  V30 24 C  29.0819 37.1980 84.1583 0
M  V30 25 C  30.5265 35.7108 82.6712 0
M  V30 26 N  31.2037 36.6462 81.6484 0 CHG=1
M  V30 27 C  31.7623 37.9455 82.2691 0
M  V30 28 C  32.6063 38.7607 81.2649 0
M  V30 29 C  33.1473 40.0342 81.9601 0
M  V30 30 C  33.9662 40.9171 80.9982 0
M  V30 31 C  35.1154 40.1186 80.3526 0
M  V30 32 C  34.6107 38.8296 79.6727 0
M  V30 33 C  33.7910 37.9658 80.6516 0
M  V30 34 H  20.0848 36.2495 88.4420 0
M  V30 35 H  17.7956 35.9594 88.8769 0
M  V30 36 H  16.0331 37.1565 87.4223 0
M  V30 37 H  16.8548 38.4697 85.5144 0
M  V30 38 H  20.8632 40.0091 84.0431 0
M  V30 39 H  23.3224 38.1269 87.1926 0
M  V30 40 H  25.2860 40.1865 86.5354 0
M  V30 41 H  25.4425 38.9021 87.6805 0
M  V30 42 H  28.1586 39.0863 86.1253 0
M  V30 43 H  25.8545 35.4550 82.8645 0
M  V30 44 H  28.0739 34.7579 82.0436 0
M  V30 45 H  29.9317 37.6988 84.5941 0
M  V30 46 H  31.2451 35.5659 83.4821 0
M  V30 47 H  30.4337 34.7592 82.1379 0
M  V30 48 H  31.9597 36.1401 81.2041 0
M  V30 49 H  30.8876 38.5071 82.6027 0
M  V30 50 H  32.3503 37.6341 83.1357 0
M  V30 51 H  31.9684 39.0962 80.4438 0
M  V30 52 H  32.3221 40.6138 82.3814 0
M  V30 53 H  33.7588 39.7575 82.8198 0
M  V30 54 H  33.3118 41.3166 80.2194 0
M  V30 55 H  34.3693 41.7767 81.5370 0
M  V30 56 H  35.6479 40.7474 79.6427 0
M  V30 57 H  35.8438 39.8573 81.1212 0
M  V30 58 H  33.9933 39.0854 78.8093 0
M  V30 59 H  35.4551 38.2559 79.2860 0
M  V30 60 H  34.4378 37.5983 81.4524 0
M  V30 61 H  33.4378 37.0668 80.1470 0
M  V30 62 H  30.5400 36.8706 80.9175 0
M  V30 END ATOM
M  V30 BEGIN BOND
M  V30 1 2 1 2
M  V30 2 1 1 6
M  V30 3 1 1 34
M  V30 4 1 2 3
M  V30 5 1 2 35
M  V30 6 2 3 4
M  V30 7 1 3 36
M  V30 8 1 4 5
M  V30 9 1 4 37
M  V30 10 1 5 6
M  V30 11 1 5 7
M  V30 12 2 6 11
M  V30 13 2 7 8
M  V30 14 1 7 9
M  V30 15 2 9 10
M  V30 16 1 9 38
M  V30 17 1 10 11
M  V30 18 1 10 12
M  V30 19 2 12 13
M  V30 20 1 12 14
M  V30 21 1 14 15
M  V30 22 1 14 39
M  V30 23 1 15 16
M  V30 24 1 15 40
M  V30 25 1 15 41
M  V30 26 2 16 17
M  V30 27 1 16 18
M  V30 28 1 17 20
M  V30 29 1 17 42
M  V30 30 2 18 19
M  V30 31 1 19 20
M  V30 32 1 19 21
M  V30 33 1 20 24
M  V30 34 2 21 22
M  V30 35 1 21 43
M  V30 36 1 22 23
M  V30 37 1 22 44
M  V30 38 2 23 24
M  V30 39 1 23 25
M  V30 40 1 24 45
M  V30 41 1 25 26
M  V30 42 1 25 46
M  V30 43 1 25 47
M  V30 44 1 26 27
M  V30 45 1 26 48
M  V30 46 1 26 62
M  V30 47 1 27 28
M  V30 48 1 27 49
M  V30 49 1 27 50
M  V30 50 1 28 29
M  V30 51 1 28 33
M  V30 52 1 28 51
M  V30 53 1 29 30
M  V30 54 1 29 52
M  V30 55 1 29 53
M  V30 56 1 30 31
M  V30 57 1 30 54
M  V30 58 1 30 55
M  V30 59 1 31 32
M  V30 60 1 31 56
M  V30 61 1 31 57
M  V30 62 1 32 33
M  V30 63 1 32 58
M  V30 64 1 32 59
M  V30 65 1 33 60
M  V30 66 1 33 61
M  V30 END BOND
M  V30 END CTAB
M  END
> <s_m_entry_id>
657

> <s_m_entry_name>
result.4273

> <s_m_Source_Path>
D:\OneDrive - zju.edu.cn\DOC\A-Finished\LCK_VS\Planet\LCK-8617

> <s_m_Source_File>
glide-dock_SP_top1262_2_pv.maegz

> <i_m_Source_File_Index>
657

> <PLANET_affinity>
7.753

> <i_lp_mmshare_version>
54117

> <i_f3d_flags>
0

> <s_epik_input>
W2NIXTFbY0hdW2NIXVtjSF1jKG4xMiluYyhbY0hdYzI9TylDKD1PKVtOSF1bQ0gyXWMobjMpW2NIXW4oYzM0KVtjSF1jKFtjSF1bY0hdNClbQ0gyXVtOSF1bQ0gyXVtDSF01W0NIMl1bQ0gyXVtDSDJdW0NIMl1bQ0gyXTU=

> <s_epik_cmdline>
J2VwaWtfcHl0aG9uJywgJy1waCcsICc3LjAnLCAnLXRuJywgJzgnLCAnLW1hJywgJzUwMCcsICctaW1hZScsICc8aW5maWxlLm1hZT4nLCAnLW9tYWUnLCAnPG91dGZpbGUubWFlPic=

> <r_epik_Ionization_Penalty>
  0.0358

> <r_epik_Ionization_Penalty_Charging>
  0.0358

> <r_epik_Ionization_Penalty_Neutral>
  0.0000

> <r_epik_State_Penalty>
  0.0457

> <r_epik_Charging_Adjusted_Penalty>
0.0814959

> <i_epik_Tot_Q>
1

> <i_epik_Tot_abs_Q>
1

> <s_lp_Force_Field>
S-OPLS

> <r_lp_Energy>
67.5225

> <b_lp_Chiralities_Consistent>
1

> <s_lp_Variant>
O=C(C(N=C1N2C=CC=C1)=CC2=O)NCC3=CN4C=C(CNCC5CCCCC5)C=CC4=N3-1

> <s_i_glide_gridfile>
glide-grid_1

> <i_i_glide_lignum>
1567

> <i_i_glide_rotatable_bonds>
8

> <r_i_docking_score>
-7.82503908769104

> <r_i_glide_ligand_efficiency>
-0.237122396596698

> <r_i_glide_ligand_efficiency_sa>
-0.760578226608339

> <r_i_glide_ligand_efficiency_ln>
-1.74024817721845

> <r_i_glide_gscore>
-7.87073908769104

> <r_i_glide_lipo>
-2.86914886220792

> <r_i_glide_hbond>
-0.32

> <r_i_glide_metal>
0

> <r_i_glide_rewards>
-2.15720821081499

> <r_i_glide_evdw>
-42.9659233093262

> <r_i_glide_ecoul>
-6.53922033309937

> <r_i_glide_erotb>
0.604797200763083

> <r_i_glide_esite>
0

> <r_i_glide_emodel>
-77.4340699911452

> <r_i_glide_energy>
-49.5051436424255

> <r_i_glide_einternal>
2.2750186920166

> <i_i_glide_confnum>
62

> <i_i_glide_posenum>
145

> <r_i_glide_eff_state_penalty>
0.0457

> <s_m_subgroup_title>
glide-dock_SP_top1262_2_pv

> <s_m_subgroupid>
glide-dock_SP_top1262_2_pv

> <b_m_subgroup_collapsed>
0

$$$$
CC1=CC=C(C=C1NC2=NC(C3=CC=CN=C3)=NC4=C2C=NN4C)C(NC5=CC=CC(C(F)(F)F)=C5)=O
                    3D
 Schrodinger Suite 2021-3.
  0  0  0     0  0            999 V3000
M  V30 BEGIN CTAB
M  V30 COUNTS 57 61 0 0 0
M  V30 BEGIN ATOM
M  V30 1 F  17.6429 36.6797 87.6426 0
M  V30 2 C  18.2438 37.7598 87.1445 0
M  V30 3 F  17.6536 38.0837 85.9939 0
M  V30 4 F  18.0919 38.7528 88.0148 0
M  V30 5 C  19.7339 37.5385 86.9143 0
M  V30 6 C  20.5498 38.6313 86.5936 0
M  V30 7 C  20.3065 36.2687 87.0473 0
M  V30 8 C  21.6758 36.0959 86.8702 0
M  V30 9 C  22.4830 37.1902 86.5632 0
M  V30 10 C  21.9323 38.4653 86.4129 0
M  V30 11 N  22.8293 39.5116 86.1229 0
M  V30 12 C  22.5771 40.7440 85.6240 0
M  V30 13 O  21.4554 41.1559 85.3289 0
M  V30 14 C  23.7890 41.6326 85.4308 0
M  V30 15 C  23.6521 43.0247 85.4504 0
M  V30 16 C  24.7572 43.8468 85.2435 0
M  V30 17 C  26.0160 43.3025 84.9637 0
M  V30 18 C  27.1733 44.2550 84.6765 0
M  V30 19 C  25.0638 41.0958 85.1931 0
M  V30 20 C  26.1822 41.9047 84.9291 0
M  V30 21 N  27.4590 41.3647 84.6422 0
M  V30 22 C  27.9095 40.0755 84.3070 0
M  V30 23 C  29.2789 39.8150 84.1280 0
M  V30 24 C  29.6254 38.4816 83.8057 0
M  V30 25 C  30.5287 40.5078 84.1610 0
M  V30 26 N  31.5240 39.6988 83.8864 0
M  V30 27 N  31.0023 38.4688 83.6882 0
M  V30 28 C  31.8747 37.3651 83.3220 0
M  V30 29 N  27.0164 39.0739 84.1276 0
M  V30 30 C  27.4638 37.8309 83.8131 0
M  V30 31 N  28.7657 37.4675 83.6431 0
M  V30 32 C  26.4049 36.8031 83.5696 0
M  V30 33 C  25.0901 36.9764 84.0381 0
M  V30 34 C  24.0804 36.0887 83.6714 0
M  V30 35 C  24.4113 35.0252 82.8436 0
M  V30 36 N  25.6811 34.7710 82.4436 0
M  V30 37 C  26.6485 35.6499 82.8079 0
M  V30 38 H  20.0897 39.6051 86.5139 0
M  V30 39 H  19.6988 35.4100 87.2960 0
M  V30 40 H  22.1077 35.1123 86.9804 0
M  V30 41 H  23.5446 37.0328 86.4429 0
M  V30 42 H  23.7995 39.3036 86.2951 0
M  V30 43 H  22.6863 43.4850 85.6181 0
M  V30 44 H  24.6140 44.9178 85.2538 0
M  V30 45 H  26.8846 45.3021 84.7752 0
M  V30 46 H  28.0009 44.0697 85.3619 0
M  V30 47 H  27.5443 44.1029 83.6619 0
M  V30 48 H  25.1664 40.0285 85.2026 0
M  V30 49 H  28.2074 42.0367 84.7200 0
M  V30 50 H  30.7107 41.5563 84.3560 0
M  V30 51 H  31.5693 36.4678 83.8620 0
M  V30 52 H  31.7915 37.1866 82.2492 0
M  V30 53 H  32.9119 37.5949 83.5713 0
M  V30 54 H  24.8305 37.8342 84.6375 0
M  V30 55 H  23.0576 36.2473 83.9804 0
M  V30 56 H  23.6377 34.3565 82.4998 0
M  V30 57 H  27.6319 35.4398 82.4099 0
M  V30 END ATOM
M  V30 BEGIN BOND
M  V30 1 1 1 2
M  V30 2 1 2 3
M  V30 3 1 2 4
M  V30 4 1 2 5
M  V30 5 2 5 6
M  V30 6 1 5 7
M  V30 7 1 6 10
M  V30 8 1 6 38
M  V30 9 2 7 8
M  V30 10 1 7 39
M  V30 11 1 8 9
M  V30 12 1 8 40
M  V30 13 2 9 10
M  V30 14 1 9 41
M  V30 15 1 10 11
M  V30 16 1 11 12
M  V30 17 1 11 42
M  V30 18 2 12 13
M  V30 19 1 12 14
M  V30 20 2 14 15
M  V30 21 1 14 19
M  V30 22 1 15 16
M  V30 23 1 15 43
M  V30 24 2 16 17
M  V30 25 1 16 44
M  V30 26 1 17 18
M  V30 27 1 17 20
M  V30 28 1 18 45
M  V30 29 1 18 46
M  V30 30 1 18 47
M  V30 31 2 19 20
M  V30 32 1 19 48
M  V30 33 1 20 21
M  V30 34 1 21 22
M  V30 35 1 21 49
M  V30 36 2 22 23
M  V30 37 1 22 29
M  V30 38 1 23 24
M  V30 39 1 23 25
M  V30 40 2 24 31
M  V30 41 1 24 27
M  V30 42 2 25 26
M  V30 43 1 25 50
M  V30 44 1 26 27
M  V30 45 1 27 28
M  V30 46 1 28 51
M  V30 47 1 28 52
M  V30 48 1 28 53
M  V30 49 2 29 30
M  V30 50 1 30 31
M  V30 51 1 30 32
M  V30 52 2 32 33
M  V30 53 1 32 37
M  V30 54 1 33 34
M  V30 55 1 33 54
M  V30 56 2 34 35
M  V30 57 1 34 55
M  V30 58 1 35 36
M  V30 59 1 35 56
M  V30 60 2 36 37
M  V30 61 1 37 57
M  V30 END BOND
M  V30 END CTAB
M  END
> <s_m_entry_id>
664

> <s_m_entry_name>
result.1796

> <s_m_Source_Path>
D:\OneDrive - zju.edu.cn\DOC\A-Finished\LCK_VS\Planet\LCK-8617

> <s_m_Source_File>
glide-dock_SP_top1262_2_pv.maegz

> <i_m_Source_File_Index>
664

> <PLANET_affinity>
7.84

> <i_lp_mmshare_version>
54117

> <i_f3d_flags>
0

> <s_epik_input>
RkMoRikoRiljMVtjSF1jKFtjSF1bY0hdW2NIXTEpW05IXUMoPU8pYzJbY0hdW2NIXWMoW0NIM10pYyhbY0hdMilbTkhdYzNuYyhuYyhjMzQpbihbQ0gzXSluW2NIXTQpLWM1W2NIXVtjSF1bY0hdbltjSF01

> <s_epik_cmdline>
J2VwaWtfcHl0aG9uJywgJy1waCcsICc3LjAnLCAnLXRuJywgJzgnLCAnLW1hJywgJzUwMCcsICctaW1hZScsICc8aW5maWxlLm1hZT4nLCAnLW9tYWUnLCAnPG91dGZpbGUubWFlPic=

> <r_epik_Ionization_Penalty>
  0.0005

> <r_epik_Ionization_Penalty_Charging>
  0.0000

> <r_epik_Ionization_Penalty_Neutral>
  0.0005

> <r_epik_State_Penalty>
  0.0000

> <r_epik_Charging_Adjusted_Penalty>
0

> <i_epik_Tot_Q>
0

> <i_epik_Tot_abs_Q>
0

> <s_lp_Force_Field>
S-OPLS

> <r_lp_Energy>
53.2102

> <b_lp_Chiralities_Consistent>
1

> <s_lp_Variant>
CC1=CC=C(C=C1NC2=NC(C3=CC=CN=C3)=NC4=C2C=NN4C)C(NC5=CC=CC(C(F)(F)F)=C5)=O-1

> <s_i_glide_gridfile>
glide-grid_1

> <i_i_glide_lignum>
1466

> <i_i_glide_rotatable_bonds>
7

> <r_i_docking_score>
-7.81795671462603

> <r_i_glide_ligand_efficiency>
-0.211296127422325

> <r_i_glide_ligand_efficiency_sa>
-0.704085572117375

> <r_i_glide_ligand_efficiency_ln>
-1.69553153249321

> <r_i_glide_gscore>
-7.81795671462603

> <r_i_glide_lipo>
-2.83501647729946

> <r_i_glide_hbond>
-0.32

> <r_i_glide_metal>
0

> <r_i_glide_rewards>
-2.02502012428786

> <r_i_glide_evdw>
-46.9222145080566

> <r_i_glide_ecoul>
-4.66846609115601

> <r_i_glide_erotb>
0.483809719271062

> <r_i_glide_esite>
-0.0753491932335438

> <r_i_glide_emodel>
-76.0562481813353

> <r_i_glide_energy>
-51.5906805992126

> <r_i_glide_einternal>
4.30057001113892

> <i_i_glide_confnum>
37

> <i_i_glide_posenum>
288

> <r_i_glide_eff_state_penalty>
0

> <r_lp_tautomer_probability>
1

> <s_m_subgroup_title>
glide-dock_SP_top1262_2_pv

> <s_m_subgroupid>
glide-dock_SP_top1262_2_pv

> <b_m_subgroup_collapsed>
0

$$$$
FC1=C(C2=CN(CCO)N=C2)C=C(C3=CNN=C3C4=CC=CC(C)=N4)C=C1
                    3D
 Schrodinger Suite 2021-3.
  0  0  0     0  0            999 V3000
M  V30 BEGIN CTAB
M  V30 COUNTS 45 48 0 0 0
M  V30 BEGIN ATOM
M  V30 1 O  17.2253 39.1566 85.6435 0
M  V30 2 C  17.4340 37.8588 86.1604 0
M  V30 3 C  18.2882 37.8817 87.4422 0
M  V30 4 N  19.6194 38.4473 87.2436 0
M  V30 5 N  19.8120 39.7584 87.4287 0
M  V30 6 C  21.0938 39.9381 87.2036 0
M  V30 7 C  20.7678 37.8002 86.8625 0
M  V30 8 C  21.7742 38.7572 86.8615 0
M  V30 9 C  23.2294 38.5709 86.5868 0
M  V30 10 C  24.1996 39.1655 87.4053 0
M  V30 11 F  23.8420 39.9572 88.4433 0
M  V30 12 C  23.6435 37.7723 85.5133 0
M  V30 13 C  25.0046 37.5451 85.2585 0
M  V30 14 C  25.9503 38.1040 86.1254 0
M  V30 15 C  25.5526 38.9209 87.1808 0
M  V30 16 C  25.4286 36.7072 84.0892 0
M  V30 17 C  24.6489 35.7293 83.4435 0
M  V30 18 N  25.2632 35.1339 82.4549 0
M  V30 19 N  26.4673 35.6981 82.4435 0
M  V30 20 C  26.6456 36.6761 83.3878 0
M  V30 21 C  27.9247 37.4381 83.4708 0
M  V30 22 C  29.1636 36.7954 83.3504 0
M  V30 23 C  30.3281 37.5600 83.4424 0
M  V30 24 C  30.2323 38.9385 83.6438 0
M  V30 25 C  28.9611 39.5106 83.7446 0
M  V30 26 N  27.8171 38.7814 83.6600 0
M  V30 27 C  28.7830 41.0003 83.9655 0
M  V30 28 H  16.8824 39.7235 86.3546 0
M  V30 29 H  16.4830 37.3586 86.3412 0
M  V30 30 H  17.9556 37.3092 85.3758 0
M  V30 31 H  17.7661 38.3684 88.2682 0
M  V30 32 H  18.4278 36.8550 87.7823 0
M  V30 33 H  21.5415 40.9181 87.2893 0
M  V30 34 H  20.7747 36.7377 86.6705 0
M  V30 35 H  22.8950 37.3377 84.8672 0
M  V30 36 H  27.0037 37.9151 85.9867 0
M  V30 37 H  26.2942 39.3610 87.8306 0
M  V30 38 H  23.6367 35.4538 83.7022 0
M  V30 39 H  27.1602 35.4528 81.7461 0
M  V30 40 H  29.2278 35.7271 83.1996 0
M  V30 41 H  31.2963 37.0877 83.3599 0
M  V30 42 H  31.1244 39.5441 83.7192 0
M  V30 43 H  29.7257 41.5405 83.8632 0
M  V30 44 H  28.0807 41.4164 83.2445 0
M  V30 45 H  28.3936 41.1883 84.9665 0
M  V30 END ATOM
M  V30 BEGIN BOND
M  V30 1 1 1 2
M  V30 2 1 1 28
M  V30 3 1 2 3
M  V30 4 1 2 29
M  V30 5 1 2 30
M  V30 6 1 3 4
M  V30 7 1 3 31
M  V30 8 1 3 32
M  V30 9 1 4 5
M  V30 10 1 4 7
M  V30 11 2 5 6
M  V30 12 1 6 8
M  V30 13 1 6 33
M  V30 14 2 7 8
M  V30 15 1 7 34
M  V30 16 1 8 9
M  V30 17 2 9 10
M  V30 18 1 9 12
M  V30 19 1 10 11
M  V30 20 1 10 15
M  V30 21 2 12 13
M  V30 22 1 12 35
M  V30 23 1 13 14
M  V30 24 1 13 16
M  V30 25 2 14 15
M  V30 26 1 14 36
M  V30 27 1 15 37
M  V30 28 1 16 17
M  V30 29 2 16 20
M  V30 30 2 17 18
M  V30 31 1 17 38
M  V30 32 1 18 19
M  V30 33 1 19 20
M  V30 34 1 19 39
M  V30 35 1 20 21
M  V30 36 2 21 22
M  V30 37 1 21 26
M  V30 38 1 22 23
M  V30 39 1 22 40
M  V30 40 2 23 24
M  V30 41 1 23 41
M  V30 42 1 24 25
M  V30 43 1 24 42
M  V30 44 2 25 26
M  V30 45 1 25 27
M  V30 46 1 27 43
M  V30 47 1 27 44
M  V30 48 1 27 45
M  V30 END BOND
M  V30 END CTAB
M  END
> <s_m_entry_id>
666

> <s_m_entry_name>
result.2007

> <s_m_Source_Path>
D:\OneDrive - zju.edu.cn\DOC\A-Finished\LCK_VS\Planet\LCK-8617

> <s_m_Source_File>
glide-dock_SP_top1262_2_pv.maegz

> <i_m_Source_File_Index>
666

> <PLANET_affinity>
7.325

> <i_lp_mmshare_version>
54117

> <i_f3d_flags>
0

> <s_epik_input>
W09IXVtDSDJdW0NIMl1uMW5bY0hdYyhbY0hdMSktYzJjKEYpW2NIXVtjSF1jKFtjSF0yKS1jM1tjSF1uW25IXWMzLWM0W2NIXVtjSF1bY0hdYyhuNClbQ0gzXQ==

> <s_epik_cmdline>
J2VwaWtfcHl0aG9uJywgJy1waCcsICc3LjAnLCAnLXRuJywgJzgnLCAnLW1hJywgJzUwMCcsICctaW1hZScsICc8aW5maWxlLm1hZT4nLCAnLW9tYWUnLCAnPG91dGZpbGUubWFlPic=

> <r_epik_Ionization_Penalty>
  0.0026

> <r_epik_Ionization_Penalty_Charging>
  0.0000

> <r_epik_Ionization_Penalty_Neutral>
  0.0026

> <r_epik_State_Penalty>
  0.3170

> <r_epik_Charging_Adjusted_Penalty>
0.316965

> <i_epik_Tot_Q>
0

> <i_epik_Tot_abs_Q>
0

> <s_lp_Force_Field>
S-OPLS

> <r_lp_Energy>
24.9613

> <b_lp_Chiralities_Consistent>
1

> <s_lp_Variant>
FC1=C(C2=CN(CCO)N=C2)C=C(C3=CNN=C3C4=CC=CC(C)=N4)C=C1-1

> <s_i_glide_gridfile>
glide-grid_1

> <i_i_glide_lignum>
2201

> <i_i_glide_rotatable_bonds>
6

> <r_i_docking_score>
-7.81713065013143

> <r_i_glide_ligand_efficiency>
-0.289523357412275

> <r_i_glide_ligand_efficiency_sa>
-0.868570071282604

> <r_i_glide_ligand_efficiency_ln>
-1.81969913987966

> <r_i_glide_gscore>
-8.13413065013143

> <r_i_glide_lipo>
-2.73423072422436

> <r_i_glide_hbond>
-0.699870506753072

> <r_i_glide_metal>
0

> <r_i_glide_rewards>
-1.97887458866334

> <r_i_glide_evdw>
-39.303279876709

> <r_i_glide_ecoul>
-8.43483924865723

> <r_i_glide_erotb>
0.509235050643382

> <r_i_glide_esite>
0

> <r_i_glide_emodel>
-71.634168169122

> <r_i_glide_energy>
-47.7381191253662

> <r_i_glide_einternal>
3.16636371612549

> <i_i_glide_confnum>
138

> <i_i_glide_posenum>
194

> <r_i_glide_eff_state_penalty>
0.317

> <r_lp_tautomer_probability>
0.5

> <s_m_subgroup_title>
glide-dock_SP_top1262_2_pv

> <s_m_subgroupid>
glide-dock_SP_top1262_2_pv

> <b_m_subgroup_collapsed>
0

$$$$
CC(C1=C2C=C(C3=NC(N[C@H]4CC[C@H](NC5CCOCC5)CC4)=NC=C3)C=CC2=NN1C)C
                    3D
 Schrodinger Suite 2021-3.
  0  0  0     0  0            999 V3000
M  V30 BEGIN CTAB
M  V30 COUNTS 70 74 0 0 0
M  V30 BEGIN ATOM
M  V30 1 C  26.9733 38.4738 86.2683 0
M  V30 2 C  27.4262 38.1899 84.8242 0
M  V30 3 C  27.4644 39.4884 83.9956 0
M  V30 4 C  26.5726 37.1378 84.1137 0
M  V30 5 N  27.0683 36.3183 83.1133 0
M  V30 6 C  28.4527 36.1977 82.6781 0
M  V30 7 N  26.1759 35.4752 82.5590 0
M  V30 8 C  25.0197 35.7628 83.2160 0
M  V30 9 C  25.1987 36.7616 84.2206 0
M  V30 10 C  23.7614 35.1871 82.9979 0
M  V30 11 C  22.7028 35.5771 83.8163 0
M  V30 12 C  22.8648 36.5189 84.8372 0
M  V30 13 C  24.1087 37.1342 85.0220 0
M  V30 14 C  21.7241 36.8871 85.7134 0
M  V30 15 N  21.4425 38.2115 85.7684 0
M  V30 16 C  20.3783 38.6072 86.5125 0
M  V30 17 N  19.5892 37.7696 87.2326 0
M  V30 18 C  19.9115 36.4489 87.2008 0
M  V30 19 C  20.9795 35.9567 86.4459 0
M  V30 20 N  20.0432 39.9701 86.5721 0
M  V30 21 C  20.9428 41.0688 86.1903 0 CFG=1
M  V30 22 C  22.1996 41.0890 87.0945 0
M  V30 23 C  23.1554 42.2307 86.6984 0
M  V30 24 C  23.5277 42.1703 85.1929 0 CFG=1
M  V30 25 C  22.2386 42.2524 84.3355 0
M  V30 26 C  21.2826 41.0896 84.6714 0
M  V30 27 N  24.4507 43.3582 84.8437 0 CHG=1
M  V30 28 C  25.9777 43.1003 84.9008 0
M  V30 29 C  26.6923 44.3646 84.3544 0
M  V30 30 C  28.2113 44.3450 84.6197 0
M  V30 31 O  28.4392 44.1673 86.0141 0
M  V30 32 C  27.9812 42.9145 86.5088 0
M  V30 33 C  26.4511 42.8169 86.3473 0
M  V30 34 H  26.8667 37.5560 86.8462 0
M  V30 35 H  26.0259 39.0118 86.3000 0
M  V30 36 H  27.7034 39.0961 86.7875 0
M  V30 37 H  28.4530 37.8270 84.9025 0
M  V30 38 H  27.8822 39.3202 83.0031 0
M  V30 39 H  26.4619 39.8998 83.8652 0
M  V30 40 H  28.0753 40.2505 84.4800 0
M  V30 41 H  28.9628 35.4639 83.3004 0
M  V30 42 H  28.4950 35.8691 81.6435 0
M  V30 43 H  28.9667 37.1536 82.7541 0
M  V30 44 H  23.6111 34.4442 82.2283 0
M  V30 45 H  21.7360 35.1286 83.6482 0
M  V30 46 H  24.2228 37.8792 85.7943 0
M  V30 47 H  19.2914 35.7838 87.7862 0
M  V30 48 H  21.2199 34.9019 86.4369 0
M  V30 49 H  19.2385 40.2071 87.1370 0
M  V30 50 H  20.3804 41.9696 86.4426 0
M  V30 51 H  21.9045 41.2048 88.1375 0
M  V30 52 H  22.7375 40.1432 87.0379 0
M  V30 53 H  22.6601 43.1828 86.9031 0
M  V30 54 H  24.0236 42.2482 87.3514 0
M  V30 55 H  24.0519 41.2317 84.9951 0
M  V30 56 H  21.7115 43.1900 84.5213 0
M  V30 57 H  22.4785 42.2825 83.2715 0
M  V30 58 H  21.7624 40.1728 84.3404 0
M  V30 59 H  20.3691 41.1572 84.0813 0
M  V30 60 H  24.2484 43.6879 83.9028 0
M  V30 61 H  26.2531 42.2824 84.2327 0
M  V30 62 H  26.4830 44.5281 83.2966 0
M  V30 63 H  26.2996 45.2492 84.8593 0
M  V30 64 H  28.7021 43.5576 84.0434 0
M  V30 65 H  28.6686 45.2841 84.3049 0
M  V30 66 H  28.4869 42.0950 85.9962 0
M  V30 67 H  28.2568 42.8328 87.5603 0
M  V30 68 H  26.0162 43.5593 87.0176 0
M  V30 69 H  26.0823 41.8547 86.7012 0
M  V30 70 H  24.2058 44.1405 85.4328 0
M  V30 END ATOM
M  V30 BEGIN BOND
M  V30 1 1 1 2
M  V30 2 1 1 34
M  V30 3 1 1 35
M  V30 4 1 1 36
M  V30 5 1 2 3
M  V30 6 1 2 4
M  V30 7 1 2 37
M  V30 8 1 3 38
M  V30 9 1 3 39
M  V30 10 1 3 40
M  V30 11 1 4 5
M  V30 12 2 4 9
M  V30 13 1 5 6
M  V30 14 1 5 7
M  V30 15 1 6 41
M  V30 16 1 6 42
M  V30 17 1 6 43
M  V30 18 2 7 8
M  V30 19 1 8 9
M  V30 20 1 8 10
M  V30 21 1 9 13
M  V30 22 2 10 11
M  V30 23 1 10 44
M  V30 24 1 11 12
M  V30 25 1 11 45
M  V30 26 2 12 13
M  V30 27 1 12 14
M  V30 28 1 13 46
M  V30 29 2 14 15
M  V30 30 1 14 19
M  V30 31 1 15 16
M  V30 32 2 16 17
M  V30 33 1 16 20
M  V30 34 1 17 18
M  V30 35 2 18 19
M  V30 36 1 18 47
M  V30 37 1 19 48
M  V30 38 1 20 21
M  V30 39 1 20 49
M  V30 40 1 21 22
M  V30 41 1 21 26
M  V30 42 1 21 50
M  V30 43 1 22 23
M  V30 44 1 22 51
M  V30 45 1 22 52
M  V30 46 1 23 24
M  V30 47 1 23 53
M  V30 48 1 23 54
M  V30 49 1 24 25
M  V30 50 1 24 27
M  V30 51 1 24 55
M  V30 52 1 25 26
M  V30 53 1 25 56
M  V30 54 1 25 57
M  V30 55 1 26 58
M  V30 56 1 26 59
M  V30 57 1 27 28
M  V30 58 1 27 60
M  V30 59 1 27 70
M  V30 60 1 28 29
M  V30 61 1 28 33
M  V30 62 1 28 61
M  V30 63 1 29 30
M  V30 64 1 29 62
M  V30 65 1 29 63
M  V30 66 1 30 31
M  V30 67 1 30 64
M  V30 68 1 30 65
M  V30 69 1 31 32
M  V30 70 1 32 33
M  V30 71 1 32 66
M  V30 72 1 32 67
M  V30 73 1 33 68
M  V30 74 1 33 69
M  V30 END BOND
M  V30 END CTAB
M  END
> <s_m_entry_id>
668

> <s_m_entry_name>
result.2670

> <s_m_Source_Path>
D:\OneDrive - zju.edu.cn\DOC\A-Finished\LCK_VS\Planet\LCK-8617

> <s_m_Source_File>
glide-dock_SP_top1262_2_pv.maegz

> <i_m_Source_File_Index>
668

> <PLANET_affinity>
7.847

> <i_lp_mmshare_version>
54117

> <i_f3d_flags>
0

> <s_epik_input>
W0NIM11bQ0hdKFtDSDNdKWMobihuMSlbQ0gzXSljKGMxMilbY0hdYyhbY0hdW2NIXTIpLWMzbmMobltjSF1bY0hdMylbTkhdW0NASF00W0NIMl1bQ0gyXVtDQEBIXShbQ0gyXVtDSDJdNClbTkhdW0NIXTVbQ0gyXVtDSDJdT1tDSDJdW0NIMl01

> <s_epik_cmdline>
J2VwaWtfcHl0aG9uJywgJy1waCcsICc3LjAnLCAnLXRuJywgJzgnLCAnLW1hJywgJzUwMCcsICctaW1hZScsICc8aW5maWxlLm1hZT4nLCAnLW9tYWUnLCAnPG91dGZpbGUubWFlPic=

> <r_epik_Ionization_Penalty>
  0.0013

> <r_epik_Ionization_Penalty_Charging>
  0.0004

> <r_epik_Ionization_Penalty_Neutral>
  0.0009

> <r_epik_State_Penalty>
  0.0000

> <r_epik_Charging_Adjusted_Penalty>
0.000352328

> <i_epik_Tot_Q>
1

> <i_epik_Tot_abs_Q>
1

> <s_lp_Force_Field>
S-OPLS

> <r_lp_Energy>
53.3182

> <b_lp_Chiralities_Consistent>
1

> <s_lp_Variant>
CC(C1=C2C=C(C3=NC(N[C@H]4CC[C@H](NC5CCOCC5)CC4)=NC=C3)C=CC2=NN1C)C-1

> <s_i_glide_gridfile>
glide-grid_1

> <i_i_glide_lignum>
1448

> <i_i_glide_rotatable_bonds>
6

> <r_i_docking_score>
-7.81562810546864

> <r_i_glide_ligand_efficiency>
-0.236837215317231

> <r_i_glide_ligand_efficiency_sa>
-0.759663497865244

> <r_i_glide_ligand_efficiency_ln>
-1.73815522349965

> <r_i_glide_gscore>
-7.81562810546864

> <r_i_glide_lipo>
-3.19460306716741

> <r_i_glide_hbond>
0

> <r_i_glide_metal>
0

> <r_i_glide_rewards>
-1.81827555494296

> <r_i_glide_evdw>
-43.8368148803711

> <r_i_glide_ecoul>
-7.06056880950928

> <r_i_glide_erotb>
0.495727173973771

> <r_i_glide_esite>
-0.047550591887089

> <r_i_glide_emodel>
-74.7201581402963

> <r_i_glide_energy>
-50.8973836898804

> <r_i_glide_einternal>
6.04607963562012

> <i_i_glide_confnum>
185

> <i_i_glide_posenum>
207

> <r_i_glide_eff_state_penalty>
0

> <r_lp_tautomer_probability>
1

> <s_m_subgroup_title>
glide-dock_SP_top1262_2_pv

> <s_m_subgroupid>
glide-dock_SP_top1262_2_pv

> <b_m_subgroup_collapsed>
0

$$$$
CN(C1=CC=CC2=C1C=NN2)C3=NC(NC4=CC(N5CCOCC5)=CC(N6CCOCC6)=C4)=NC=C3
                    3D
 Schrodinger Suite 2021-3.
  0  0  0     0  0            999 V3000
M  V30 BEGIN CTAB
M  V30 COUNTS 66 71 0 0 0
M  V30 BEGIN ATOM
M  V30 1 N  19.2756 39.5160 86.9011 0
M  V30 2 N  20.0559 40.4835 86.3911 0
M  V30 3 C  21.1653 39.9145 86.0015 0
M  V30 4 C  21.1630 38.5046 86.2552 0
M  V30 5 C  19.8914 38.2790 86.8492 0
M  V30 6 C  22.0461 37.4151 86.0471 0
M  V30 7 C  21.6043 36.1516 86.4552 0
M  V30 8 C  20.3594 35.9562 87.0473 0
M  V30 9 C  19.4691 37.0093 87.2532 0
M  V30 10 N  23.3343 37.5608 85.4733 0
M  V30 11 C  24.1398 38.6611 86.0245 0
M  V30 12 C  23.9343 36.7568 84.4635 0
M  V30 13 N  25.2755 36.8686 84.2177 0
M  V30 14 C  25.8124 36.1226 83.2169 0
M  V30 15 N  25.1226 35.2579 82.4441 0
M  V30 16 C  23.7981 35.1567 82.6865 0
M  V30 17 C  23.1524 35.8895 83.6836 0
M  V30 18 N  27.1757 36.1823 82.9081 0
M  V30 19 C  28.2657 36.8841 83.4415 0
M  V30 20 C  28.1415 37.9732 84.3067 0
M  V30 21 C  29.2677 38.6400 84.8012 0
M  V30 22 N  29.1510 39.7180 85.6753 0
M  V30 23 C  27.9443 39.9991 86.4718 0
M  V30 24 C  26.9760 40.9427 85.7171 0
M  V30 25 O  27.6473 42.1529 85.3867 0
M  V30 26 C  28.8289 41.9430 84.6152 0
M  V30 27 C  29.7976 41.0081 85.3820 0
M  V30 28 C  30.5332 38.1807 84.4193 0
M  V30 29 C  30.6886 37.0853 83.5550 0
M  V30 30 C  29.5373 36.4550 83.0714 0
M  V30 31 N  31.9356 36.5782 83.2051 0
M  V30 32 C  33.1590 36.9177 83.9587 0
M  V30 33 C  34.3145 35.9243 83.6984 0
M  V30 34 O  34.5788 35.8427 82.3044 0
M  V30 35 C  33.4404 35.3954 81.5764 0
M  V30 36 C  32.2658 36.3740 81.7815 0
M  V30 37 H  18.3471 39.7414 87.2441 0
M  V30 38 H  21.9460 40.5035 85.5448 0
M  V30 39 H  22.2497 35.2970 86.3281 0
M  V30 40 H  20.0818 34.9565 87.3517 0
M  V30 41 H  18.5017 36.8471 87.7061 0
M  V30 42 H  25.1184 38.3103 86.3495 0
M  V30 43 H  24.2745 39.4413 85.2771 0
M  V30 44 H  23.6819 39.1270 86.8977 0
M  V30 45 H  23.2823 34.4582 82.0512 0
M  V30 46 H  22.0878 35.7854 83.8249 0
M  V30 47 H  27.4200 35.5657 82.1454 0
M  V30 48 H  27.1657 38.3251 84.5875 0
M  V30 49 H  27.4522 39.0686 86.7574 0
M  V30 50 H  28.2433 40.4636 87.4126 0
M  V30 51 H  26.1214 41.1809 86.3509 0
M  V30 52 H  26.5735 40.4820 84.8136 0
M  V30 53 H  29.2902 42.9150 84.4437 0
M  V30 54 H  28.5801 41.5344 83.6337 0
M  V30 55 H  30.0958 41.4808 86.3189 0
M  V30 56 H  30.7218 40.8720 84.8182 0
M  V30 57 H  31.4060 38.6770 84.8168 0
M  V30 58 H  29.6358 35.5956 82.4226 0
M  V30 59 H  33.4679 37.9357 83.7212 0
M  V30 60 H  32.9373 36.8938 85.0259 0
M  V30 61 H  34.0813 34.9381 84.1067 0
M  V30 62 H  35.2204 36.2598 84.2062 0
M  V30 63 H  33.1608 34.3834 81.8794 0
M  V30 64 H  33.6969 35.3423 80.5184 0
M  V30 65 H  31.4088 35.9694 81.2436 0
M  V30 66 H  32.4854 37.3366 81.3163 0
M  V30 END ATOM
M  V30 BEGIN BOND
M  V30 1 1 1 2
M  V30 2 1 1 5
M  V30 3 1 1 37
M  V30 4 2 2 3
M  V30 5 1 3 4
M  V30 6 1 3 38
M  V30 7 2 4 5
M  V30 8 1 4 6
M  V30 9 1 5 9
M  V30 10 2 6 7
M  V30 11 1 6 10
M  V30 12 1 7 8
M  V30 13 1 7 39
M  V30 14 2 8 9
M  V30 15 1 8 40
M  V30 16 1 9 41
M  V30 17 1 10 11
M  V30 18 1 10 12
M  V30 19 1 11 42
M  V30 20 1 11 43
M  V30 21 1 11 44
M  V30 22 2 12 13
M  V30 23 1 12 17
M  V30 24 1 13 14
M  V30 25 2 14 15
M  V30 26 1 14 18
M  V30 27 1 15 16
M  V30 28 2 16 17
M  V30 29 1 16 45
M  V30 30 1 17 46
M  V30 31 1 18 19
M  V30 32 1 18 47
M  V30 33 2 19 20
M  V30 34 1 19 30
M  V30 35 1 20 21
M  V30 36 1 20 48
M  V30 37 1 21 22
M  V30 38 2 21 28
M  V30 39 1 22 23
M  V30 40 1 22 27
M  V30 41 1 23 24
M  V30 42 1 23 49
M  V30 43 1 23 50
M  V30 44 1 24 25
M  V30 45 1 24 51
M  V30 46 1 24 52
M  V30 47 1 25 26
M  V30 48 1 26 27
M  V30 49 1 26 53
M  V30 50 1 26 54
M  V30 51 1 27 55
M  V30 52 1 27 56
M  V30 53 1 28 29
M  V30 54 1 28 57
M  V30 55 2 29 30
M  V30 56 1 29 31
M  V30 57 1 30 58
M  V30 58 1 31 32
M  V30 59 1 31 36
M  V30 60 1 32 33
M  V30 61 1 32 59
M  V30 62 1 32 60
M  V30 63 1 33 34
M  V30 64 1 33 61
M  V30 65 1 33 62
M  V30 66 1 34 35
M  V30 67 1 35 36
M  V30 68 1 35 63
M  V30 69 1 35 64
M  V30 70 1 36 65
M  V30 71 1 36 66
M  V30 END BOND
M  V30 END CTAB
M  END
> <s_m_entry_id>
669

> <s_m_entry_name>
result.2587

> <s_m_Source_Path>
D:\OneDrive - zju.edu.cn\DOC\A-Finished\LCK_VS\Planet\LCK-8617

> <s_m_Source_File>
glide-dock_SP_top1262_2_pv.maegz

> <i_m_Source_File_Index>
669

> <PLANET_affinity>
8.996

> <i_lp_mmshare_version>
54117

> <i_f3d_flags>
0

> <s_epik_input>
W2NIXTFuW25IXWMoYzEyKVtjSF1bY0hdW2NIXWMyTihbQ0gzXSljM25jKG5bY0hdW2NIXTMpW05IXWM0W2NIXWMoTjVbQ0gyXVtDSDJdT1tDSDJdW0NIMl01KVtjSF1jKFtjSF00KU42W0NIMl1bQ0gyXU9bQ0gyXVtDSDJdNg==

> <s_epik_cmdline>
J2VwaWtfcHl0aG9uJywgJy1waCcsICc3LjAnLCAnLXRuJywgJzgnLCAnLW1hJywgJzUwMCcsICctaW1hZScsICc8aW5maWxlLm1hZT4nLCAnLW9tYWUnLCAnPG91dGZpbGUubWFlPic=

> <r_epik_Ionization_Penalty>
  0.0098

> <r_epik_Ionization_Penalty_Charging>
  0.0000

> <r_epik_Ionization_Penalty_Neutral>
  0.0098

> <r_epik_State_Penalty>
  0.0158

> <r_epik_Charging_Adjusted_Penalty>
0.0158338

> <i_epik_Tot_Q>
0

> <i_epik_Tot_abs_Q>
0

> <s_lp_Force_Field>
S-OPLS

> <r_lp_Energy>
63.9309

> <b_lp_Chiralities_Consistent>
1

> <s_lp_Variant>
CN(C1=CC=CC2=C1C=NN2)C3=NC(NC4=CC(N5CCOCC5)=CC(N6CCOCC6)=C4)=NC=C3-1

> <s_i_glide_gridfile>
glide-grid_1

> <i_i_glide_lignum>
518

> <i_i_glide_rotatable_bonds>
6

> <r_i_docking_score>
-7.8152001775639

> <r_i_glide_ligand_efficiency>
-0.217088893821219

> <r_i_glide_ligand_efficiency_sa>
-0.716811733084441

> <r_i_glide_ligand_efficiency_ln>
-1.70506553643615

> <r_i_glide_gscore>
-7.8310001775639

> <r_i_glide_lipo>
-3.22015900195273

> <r_i_glide_hbond>
-0.299330220530124

> <r_i_glide_metal>
0

> <r_i_glide_rewards>
-1.53213908798749

> <r_i_glide_evdw>
-47.6268920898438

> <r_i_glide_ecoul>
-4.85806131362915

> <r_i_glide_erotb>
0.360538924165548

> <r_i_glide_esite>
-0.029856989722551

> <r_i_glide_emodel>
-77.5047710887732

> <r_i_glide_energy>
-52.4849534034729

> <r_i_glide_einternal>
1.31724190711975

> <i_i_glide_confnum>
33

> <i_i_glide_posenum>
11

> <r_i_glide_eff_state_penalty>
0.0158

> <r_lp_tautomer_probability>
0.980392

> <s_m_subgroup_title>
glide-dock_SP_top1262_2_pv

> <s_m_subgroupid>
glide-dock_SP_top1262_2_pv

> <b_m_subgroup_collapsed>
0

$$$$
O=C(C1=CC=NO1)N[C@@H](CC2CCCCC2)C(N[C@@H]([C@@H](C)CC)C(NCC3=CC=CC(C(N4CCC(CN...
                    3D
 Schrodinger Suite 2021-3.
  0  0  0     0  0            999 V3000
M  V30 BEGIN CTAB
M  V30 COUNTS 93 96 0 0 0
M  V30 BEGIN ATOM
M  V30 1 O  20.9732 40.5738 94.4296 0
M  V30 2 N  21.0119 39.2480 94.8627 0
M  V30 3 C  22.1570 38.7720 94.4379 0
M  V30 4 C  22.8837 39.6918 93.6965 0
M  V30 5 C  22.0797 40.8114 93.6766 0
M  V30 6 C  22.1794 42.0478 92.9672 0
M  V30 7 O  22.0141 43.1453 93.4984 0
M  V30 8 N  22.4153 41.8296 91.6643 0
M  V30 9 C  22.4901 42.8035 90.5795 0 CFG=1
M  V30 10 C  23.7853 43.6729 90.6087 0
M  V30 11 C  25.1502 42.9286 90.5406 0
M  V30 12 C  26.2461 43.8341 89.9268 0
M  V30 13 C  27.5935 43.0956 89.7954 0
M  V30 14 C  28.0601 42.5289 91.1539 0
M  V30 15 C  26.9673 41.6684 91.8225 0
M  V30 16 C  25.6384 42.4351 91.9268 0
M  V30 17 C  22.1862 42.0479 89.2580 0
M  V30 18 O  21.2830 41.2048 89.2439 0
M  V30 19 N  22.9147 42.3420 88.1661 0
M  V30 20 C  22.8029 41.6201 86.8949 0 CFG=1
M  V30 21 C  23.5757 42.3398 85.7537 0 CFG=1
M  V30 22 C  23.0417 43.7751 85.6020 0
M  V30 23 C  25.1244 42.3236 85.8563 0
M  V30 24 C  25.8208 42.9301 84.6297 0
M  V30 25 C  23.2818 40.1596 87.0250 0
M  V30 26 O  24.2348 39.8901 87.7605 0
M  V30 27 N  22.5855 39.2437 86.3317 0
M  V30 28 C  22.7376 37.8023 86.5146 0
M  V30 29 C  22.9865 37.0457 85.2221 0
M  V30 30 C  21.9085 36.5105 84.5144 0
M  V30 31 C  22.1306 35.7598 83.3652 0
M  V30 32 C  23.4282 35.5561 82.9059 0
M  V30 33 C  24.5298 36.0980 83.5864 0
M  V30 34 C  24.2932 36.8129 84.7750 0
M  V30 35 C  25.9282 35.8290 83.0627 0
M  V30 36 O  26.1179 34.7572 82.4805 0
M  V30 37 N  26.9293 36.7408 83.2478 0
M  V30 38 C  28.3161 36.3413 82.8895 0
M  V30 39 C  29.2824 37.0303 83.8844 0
M  V30 40 C  29.1032 38.5617 83.9310 0
M  V30 41 C  30.1492 39.2171 84.8733 0
M  V30 42 N  30.1732 40.7519 84.7372 0 CHG=1
M  V30 43 C  27.6371 38.8074 84.3485 0
M  V30 44 C  26.6630 38.2029 83.3134 0
M  V30 45 H  22.4829 37.7646 94.6608 0
M  V30 46 H  23.8472 39.5527 93.2319 0
M  V30 47 H  22.4929 40.8736 91.3528 0
M  V30 48 H  21.6498 43.4899 90.7043 0
M  V30 49 H  23.7651 44.2805 91.5149 0
M  V30 50 H  23.7216 44.4132 89.8088 0
M  V30 51 H  25.0575 42.0558 89.8913 0
M  V30 52 H  26.3633 44.7332 90.5330 0
M  V30 53 H  25.9256 44.1990 88.9501 0
M  V30 54 H  28.3508 43.7737 89.3980 0
M  V30 55 H  27.4969 42.2839 89.0705 0
M  V30 56 H  28.3186 43.3558 91.8193 0
M  V30 57 H  28.9749 41.9528 91.0251 0
M  V30 58 H  27.2841 41.3543 92.8175 0
M  V30 59 H  26.8152 40.7548 91.2452 0
M  V30 60 H  24.8986 41.7909 92.3959 0
M  V30 61 H  25.7387 43.2791 92.6134 0
M  V30 62 H  23.6306 43.0505 88.2143 0
M  V30 63 H  21.7444 41.6031 86.6269 0
M  V30 64 H  23.3133 41.8142 84.8332 0
M  V30 65 H  23.4022 44.4305 86.3949 0
M  V30 66 H  23.3393 44.2129 84.6491 0
M  V30 67 H  21.9504 43.7972 85.6392 0
M  V30 68 H  25.4368 42.8673 86.7489 0
M  V30 69 H  25.4993 41.3084 85.9739 0
M  V30 70 H  26.8515 42.5853 84.5519 0
M  V30 71 H  25.3132 42.6596 83.7037 0
M  V30 72 H  25.8470 44.0187 84.6850 0
M  V30 73 H  21.8162 39.5500 85.7538 0
M  V30 74 H  23.5367 37.5678 87.2130 0
M  V30 75 H  21.8335 37.4245 86.9971 0
M  V30 76 H  20.8993 36.6673 84.8647 0
M  V30 77 H  21.3002 35.3154 82.8348 0
M  V30 78 H  23.5647 34.9646 82.0113 0
M  V30 79 H  25.1175 37.1924 85.3606 0
M  V30 80 H  28.4719 35.2656 83.0015 0
M  V30 81 H  28.5466 36.6355 81.8683 0
M  V30 82 H  29.1728 36.6019 84.8781 0
M  V30 83 H  30.3104 36.7877 83.6081 0
M  V30 84 H  29.2454 38.9354 82.9145 0
M  V30 85 H  29.9576 39.0234 85.9311 0
M  V30 86 H  31.1745 38.9211 84.6361 0
M  V30 87 H  30.8541 41.1484 85.3726 0
M  V30 88 H  30.4350 41.0364 83.8019 0
M  V30 89 H  27.4460 39.8784 84.4294 0
M  V30 90 H  27.4380 38.4260 85.3519 0
M  V30 91 H  26.8701 38.6403 82.3389 0
M  V30 92 H  25.6459 38.4693 83.5878 0
M  V30 93 H  29.2716 41.1495 84.9569 0
M  V30 END ATOM
M  V30 BEGIN BOND
M  V30 1 1 1 2
M  V30 2 1 1 5
M  V30 3 2 2 3
M  V30 4 1 3 4
M  V30 5 1 3 45
M  V30 6 2 4 5
M  V30 7 1 4 46
M  V30 8 1 5 6
M  V30 9 2 6 7
M  V30 10 1 6 8
M  V30 11 1 8 9
M  V30 12 1 8 47
M  V30 13 1 9 10
M  V30 14 1 9 17
M  V30 15 1 9 48
M  V30 16 1 10 11
M  V30 17 1 10 49
M  V30 18 1 10 50
M  V30 19 1 11 12
M  V30 20 1 11 16
M  V30 21 1 11 51
M  V30 22 1 12 13
M  V30 23 1 12 52
M  V30 24 1 12 53
M  V30 25 1 13 14
M  V30 26 1 13 54
M  V30 27 1 13 55
M  V30 28 1 14 15
M  V30 29 1 14 56
M  V30 30 1 14 57
M  V30 31 1 15 16
M  V30 32 1 15 58
M  V30 33 1 15 59
M  V30 34 1 16 60
M  V30 35 1 16 61
M  V30 36 2 17 18
M  V30 37 1 17 19
M  V30 38 1 19 20
M  V30 39 1 19 62
M  V30 40 1 20 21
M  V30 41 1 20 25
M  V30 42 1 20 63
M  V30 43 1 21 22
M  V30 44 1 21 23
M  V30 45 1 21 64
M  V30 46 1 22 65
M  V30 47 1 22 66
M  V30 48 1 22 67
M  V30 49 1 23 24
M  V30 50 1 23 68
M  V30 51 1 23 69
M  V30 52 1 24 70
M  V30 53 1 24 71
M  V30 54 1 24 72
M  V30 55 2 25 26
M  V30 56 1 25 27
M  V30 57 1 27 28
M  V30 58 1 27 73
M  V30 59 1 28 29
M  V30 60 1 28 74
M  V30 61 1 28 75
M  V30 62 2 29 30
M  V30 63 1 29 34
M  V30 64 1 30 31
M  V30 65 1 30 76
M  V30 66 2 31 32
M  V30 67 1 31 77
M  V30 68 1 32 33
M  V30 69 1 32 78
M  V30 70 2 33 34
M  V30 71 1 33 35
M  V30 72 1 34 79
M  V30 73 2 35 36
M  V30 74 1 35 37
M  V30 75 1 37 38
M  V30 76 1 37 44
M  V30 77 1 38 39
M  V30 78 1 38 80
M  V30 79 1 38 81
M  V30 80 1 39 40
M  V30 81 1 39 82
M  V30 82 1 39 83
M  V30 83 1 40 41
M  V30 84 1 40 43
M  V30 85 1 40 84
M  V30 86 1 41 42
M  V30 87 1 41 85
M  V30 88 1 41 86
M  V30 89 1 42 87
M  V30 90 1 42 88
M  V30 91 1 42 93
M  V30 92 1 43 44
M  V30 93 1 43 89
M  V30 94 1 43 90
M  V30 95 1 44 91
M  V30 96 1 44 92
M  V30 END BOND
M  V30 END CTAB
M  END
> <s_m_entry_id>
670

> <s_m_entry_name>
result.4251

> <s_m_Source_Path>
D:\OneDrive - zju.edu.cn\DOC\A-Finished\LCK_VS\Planet\LCK-8617

> <s_m_Source_File>
glide-dock_SP_top1262_2_pv.maegz

> <i_m_Source_File_Index>
670

> <PLANET_affinity>
8.02

> <i_lp_mmshare_version>
54117

> <i_f3d_flags>
0

> <s_epik_input>
W2NIXTFbY0hdbm9jMUMoPU8pW05IXVtDQEBIXShbQ0gyXVtDSF0yW0NIMl1bQ0gyXVtDSDJdW0NIMl1bQ0gyXTIpQyg9TylbTkhdW0NAQEhdKFtDQEBIXShbQ0gzXSlbQ0gyXVtDSDNdKUMoPU8pW05IXVtDSDJdYzNbY0hdW2NIXVtjSF1jKFtjSF0zKUMoPU8pTjRbQ0gyXVtDSDJdW0NIXShbQ0gyXVtOSDJdKVtDSDJdW0NIMl00

> <s_epik_cmdline>
J2VwaWtfcHl0aG9uJywgJy1waCcsICc3LjAnLCAnLXRuJywgJzgnLCAnLW1hJywgJzUwMCcsICctaW1hZScsICc8aW5maWxlLm1hZT4nLCAnLW9tYWUnLCAnPG91dGZpbGUubWFlPic=

> <r_epik_Ionization_Penalty>
  0.0006

> <r_epik_Ionization_Penalty_Charging>
  0.0006

> <r_epik_Ionization_Penalty_Neutral>
  0.0000

> <r_epik_State_Penalty>
  0.0004

> <r_epik_Charging_Adjusted_Penalty>
0.000922034

> <i_epik_Tot_Q>
1

> <i_epik_Tot_abs_Q>
1

> <s_lp_Force_Field>
S-OPLS

> <r_lp_Energy>
45.064

> <b_lp_Chiralities_Consistent>
1

> <s_lp_Variant>
O=C(C1=CC=NO1)N[C@@H](CC2CCCCC2)C(N[C@@H]([C@@H](C)CC)C(NCC3=CC=CC(C(N4CCC(CN...-1

> <s_i_glide_gridfile>
glide-grid_1

> <i_i_glide_lignum>
1279

> <i_i_glide_rotatable_bonds>
17

> <r_i_docking_score>
-7.81414052898462

> <r_i_glide_ligand_efficiency>
-0.177594102931469

> <r_i_glide_ligand_efficiency_sa>
-0.626969044856979

> <r_i_glide_ligand_efficiency_ln>
-1.63332583507665

> <r_i_glide_gscore>
-7.81454052898462

> <r_i_glide_lipo>
-3.24373004520715

> <r_i_glide_hbond>
-0.48

> <r_i_glide_metal>
0

> <r_i_glide_rewards>
-0.822990554590113

> <r_i_glide_evdw>
-49.678897857666

> <r_i_glide_ecoul>
-8.69770812988281

> <r_i_glide_erotb>
0.611605196626648

> <r_i_glide_esite>
-0.0908240134482757

> <r_i_glide_emodel>
-83.1385352303119

> <r_i_glide_energy>
-58.3766059875488

> <r_i_glide_einternal>
15.8954782485962

> <i_i_glide_confnum>
157

> <i_i_glide_posenum>
62

> <r_i_glide_eff_state_penalty>
0.0004

> <s_m_subgroup_title>
glide-dock_SP_top1262_2_pv

> <s_m_subgroupid>
glide-dock_SP_top1262_2_pv

> <b_m_subgroup_collapsed>
0

$$$$
C1(NC2=CN(C3CCOCC3)N=C2)=NC=C(N=NN4C5=CC6=C(C=C5)C=NN6)C4=N1
                    3D
 Schrodinger Suite 2021-3.
  0  0  0     0  0            999 V3000
M  V30 BEGIN CTAB
M  V30 COUNTS 48 53 0 0 0
M  V30 BEGIN ATOM
M  V30 1 N  28.0725 39.8161 87.7061 0
M  V30 2 N  28.1823 40.9357 88.4435 0
M  V30 3 C  26.9687 41.3623 88.6743 0
M  V30 4 C  25.9956 40.5257 88.0544 0
M  V30 5 C  26.7544 39.5106 87.4248 0
M  V30 6 C  24.5998 40.5095 87.9446 0
M  V30 7 C  24.0031 39.5024 87.1872 0
M  V30 8 C  24.7601 38.4973 86.5636 0
M  V30 9 C  26.1607 38.4791 86.6910 0
M  V30 10 N  24.1114 37.5561 85.7151 0
M  V30 11 N  22.7940 37.2545 85.8600 0
M  V30 12 N  22.4039 36.3635 84.8809 0
M  V30 13 C  24.6095 36.8120 84.6490 0
M  V30 14 C  23.5055 36.1061 84.1288 0
M  V30 15 N  25.8447 36.7622 84.1396 0
M  V30 16 C  25.9704 35.9641 83.0424 0
M  V30 17 N  24.9777 35.2509 82.4439 0
M  V30 18 C  23.7354 35.3215 82.9926 0
M  V30 19 N  27.2270 35.8359 82.4435 0
M  V30 20 C  28.4443 36.3278 82.8436 0
M  V30 21 C  29.6761 35.8181 82.4831 0
M  V30 22 N  30.6309 36.5752 83.1138 0
M  V30 23 N  30.0797 37.6036 83.7746 0
M  V30 24 C  28.7837 37.4320 83.6430 0
M  V30 25 C  32.0908 36.5315 82.9483 0
M  V30 26 C  32.5968 35.0697 83.0201 0
M  V30 27 C  34.0702 34.9750 82.5851 0
M  V30 28 O  34.2237 35.5369 81.2828 0
M  V30 29 C  33.9115 36.9268 81.2080 0
M  V30 30 C  32.4313 37.1495 81.5700 0
M  V30 31 H  28.9066 39.3169 87.4262 0
M  V30 32 H  26.7990 42.2570 89.2536 0
M  V30 33 H  23.9983 41.2780 88.4085 0
M  V30 34 H  22.9287 39.5242 87.0714 0
M  V30 35 H  26.7721 37.7202 86.2297 0
M  V30 36 H  22.9433 34.7572 82.5291 0
M  V30 37 H  27.1947 35.2926 81.5865 0
M  V30 38 H  29.9467 34.9975 81.8351 0
M  V30 39 H  28.0855 38.1188 84.0952 0
M  V30 40 H  32.5123 37.1344 83.7572 0
M  V30 41 H  32.5453 34.7315 84.0561 0
M  V30 42 H  31.9817 34.3688 82.4557 0
M  V30 43 H  34.7241 35.4807 83.2982 0
M  V30 44 H  34.3889 33.9315 82.5578 0
M  V30 45 H  34.5654 37.4994 81.8687 0
M  V30 46 H  34.1084 37.2785 80.1950 0
M  V30 47 H  31.7698 36.7758 80.7838 0
M  V30 48 H  32.2620 38.2253 81.6057 0
M  V30 END ATOM
M  V30 BEGIN BOND
M  V30 1 1 1 2
M  V30 2 1 1 5
M  V30 3 1 1 31
M  V30 4 2 2 3
M  V30 5 1 3 4
M  V30 6 1 3 32
M  V30 7 2 4 5
M  V30 8 1 4 6
M  V30 9 1 5 9
M  V30 10 2 6 7
M  V30 11 1 6 33
M  V30 12 1 7 8
M  V30 13 1 7 34
M  V30 14 2 8 9
M  V30 15 1 8 10
M  V30 16 1 9 35
M  V30 17 1 10 11
M  V30 18 1 10 13
M  V30 19 2 11 12
M  V30 20 1 12 14
M  V30 21 2 13 14
M  V30 22 1 13 15
M  V30 23 1 14 18
M  V30 24 2 15 16
M  V30 25 1 16 17
M  V30 26 1 16 19
M  V30 27 2 17 18
M  V30 28 1 18 36
M  V30 29 1 19 20
M  V30 30 1 19 37
M  V30 31 2 20 21
M  V30 32 1 20 24
M  V30 33 1 21 22
M  V30 34 1 21 38
M  V30 35 1 22 23
M  V30 36 1 22 25
M  V30 37 2 23 24
M  V30 38 1 24 39
M  V30 39 1 25 26
M  V30 40 1 25 30
M  V30 41 1 25 40
M  V30 42 1 26 27
M  V30 43 1 26 41
M  V30 44 1 26 42
M  V30 45 1 27 28
M  V30 46 1 27 43
M  V30 47 1 27 44
M  V30 48 1 28 29
M  V30 49 1 29 30
M  V30 50 1 29 45
M  V30 51 1 29 46
M  V30 52 1 30 47
M  V30 53 1 30 48
M  V30 END BOND
M  V30 END CTAB
M  END
> <s_m_entry_id>
671

> <s_m_entry_name>
result.2678

> <s_m_Source_Path>
D:\OneDrive - zju.edu.cn\DOC\A-Finished\LCK_VS\Planet\LCK-8617

> <s_m_Source_File>
glide-dock_SP_top1262_2_pv.maegz

> <i_m_Source_File_Index>
671

> <PLANET_affinity>
7.125

> <i_lp_mmshare_version>
54117

> <i_f3d_flags>
0

> <s_epik_input>
W2NIXTFuW25IXWMoYzEyKVtjSF1jKFtjSF1bY0hdMiktbjNubmMoYzM0KVtjSF1uYyhuNClbTkhdYzVbY0hdbihuW2NIXTUpW0NIXTZbQ0gyXVtDSDJdT1tDSDJdW0NIMl02

> <s_epik_cmdline>
J2VwaWtfcHl0aG9uJywgJy1waCcsICc3LjAnLCAnLXRuJywgJzgnLCAnLW1hJywgJzUwMCcsICctaW1hZScsICc8aW5maWxlLm1hZT4nLCAnLW9tYWUnLCAnPG91dGZpbGUubWFlPic=

> <r_epik_Ionization_Penalty>
  0.0005

> <r_epik_Ionization_Penalty_Charging>
  0.0000

> <r_epik_Ionization_Penalty_Neutral>
  0.0005

> <r_epik_State_Penalty>
  0.0000

> <r_epik_Charging_Adjusted_Penalty>
0

> <i_epik_Tot_Q>
0

> <i_epik_Tot_abs_Q>
0

> <s_lp_Force_Field>
S-OPLS

> <r_lp_Energy>
23.7331

> <b_lp_Chiralities_Consistent>
1

> <s_lp_Variant>
C1(NC2=CN(C3CCOCC3)N=C2)=NC=C(N=NN4C5=CC6=C(C=C5)C=NN6)C4=N1-1

> <s_i_glide_gridfile>
glide-grid_1

> <i_i_glide_lignum>
2498

> <i_i_glide_rotatable_bonds>
4

> <r_i_docking_score>
-7.81331500296914

> <r_i_glide_ligand_efficiency>
-0.260443833432305

> <r_i_glide_ligand_efficiency_sa>
-0.809259544298606

> <r_i_glide_ligand_efficiency_ln>
-1.77527030156015

> <r_i_glide_gscore>
-7.81331500296914

> <r_i_glide_lipo>
-1.78383477213674

> <r_i_glide_hbond>
-0.570658125791675

> <r_i_glide_metal>
0

> <r_i_glide_rewards>
-2.67762047282861

> <r_i_glide_evdw>
-42.1429405212402

> <r_i_glide_ecoul>
-6.75573968887329

> <r_i_glide_erotb>
0.339306347180887

> <r_i_glide_esite>
0

> <r_i_glide_emodel>
-69.7373684114787

> <r_i_glide_energy>
-48.8986802101135

> <r_i_glide_einternal>
4.01700735092163

> <i_i_glide_confnum>
51

> <i_i_glide_posenum>
198

> <r_i_glide_eff_state_penalty>
0

> <r_lp_tautomer_probability>
1

> <s_m_subgroup_title>
glide-dock_SP_top1262_2_pv

> <s_m_subgroupid>
glide-dock_SP_top1262_2_pv

> <b_m_subgroup_collapsed>
0

$$$$
CCN1CCN(CC2=CN=C(NC3=NC=C(F)C(C4=CC(N(C(C)C)C(C)=N5)=C5C(F)=C4)=C3)N=C2)CC1
                    3D
 Schrodinger Suite 2021-3.
  0  0  0     0  0            999 V3000
M  V30 BEGIN CTAB
M  V30 COUNTS 70 74 0 0 0
M  V30 BEGIN ATOM
M  V30 1 C  35.0999 41.9947 80.2975 0
M  V30 2 C  33.8683 41.2918 79.6858 0
M  V30 3 N  33.2818 40.1893 80.5955 0 CHG=1
M  V30 4 C  34.2160 38.9578 80.6884 0
M  V30 5 C  33.5054 37.8753 81.5230 0
M  V30 6 N  33.2254 38.3724 82.8781 0 CFG=1
M  V30 7 C  32.3114 39.5298 82.8170 0
M  V30 8 C  32.9447 40.6912 82.0269 0
M  V30 9 C  32.7345 37.3044 83.7636 0
M  V30 10 C  31.3164 36.8483 83.4512 0
M  V30 11 C  30.2236 37.3847 84.1384 0
M  V30 12 N  28.9464 37.0447 83.8429 0
M  V30 13 C  28.7658 36.1452 82.8399 0
M  V30 14 N  29.7631 35.5580 82.1313 0
M  V30 15 C  31.0317 35.9074 82.4573 0
M  V30 16 N  27.4801 35.7633 82.4450 0
M  V30 17 C  26.2057 35.9421 82.9934 0
M  V30 18 N  25.2507 35.1570 82.4470 0
M  V30 19 C  24.0064 35.2085 82.9767 0
M  V30 20 C  23.6557 36.0349 84.0437 0
M  V30 21 F  22.3924 35.9845 84.5264 0
M  V30 22 C  24.6273 36.9020 84.5795 0
M  V30 23 C  25.9182 36.8378 84.0323 0
M  V30 24 C  24.3322 37.8946 85.6607 0
M  V30 25 C  23.1030 38.5692 85.6726 0
M  V30 26 C  25.2965 38.1955 86.6349 0
M  V30 27 C  25.0917 39.1569 87.6182 0
M  V30 28 F  26.0578 39.4126 88.5301 0
M  V30 29 C  23.8726 39.8531 87.6245 0
M  V30 30 C  22.8866 39.5521 86.6496 0
M  V30 31 N  23.4504 40.8400 88.4711 0
M  V30 32 C  22.2580 41.1597 88.0404 0
M  V30 33 C  21.4345 42.2631 88.6747 0
M  V30 34 N  21.8359 40.4140 86.9507 0
M  V30 35 C  20.5171 40.5273 86.3032 0
M  V30 36 C  19.5311 39.5482 86.9663 0
M  V30 37 C  20.5800 40.3569 84.7763 0
M  V30 38 H  35.4555 42.7868 79.6427 0
M  V30 39 H  34.8849 42.4803 81.2465 0
M  V30 40 H  35.9333 41.3082 80.4497 0
M  V30 41 H  34.0833 40.8078 78.7328 0
M  V30 42 H  33.0223 41.9563 79.5325 0
M  V30 43 H  34.4039 38.6210 79.6666 0
M  V30 44 H  35.1544 39.2730 81.1481 0
M  V30 45 H  34.1455 36.9929 81.5768 0
M  V30 46 H  32.5881 37.5683 81.0191 0
M  V30 47 H  31.3605 39.2548 82.3560 0
M  V30 48 H  32.0825 39.8705 83.8288 0
M  V30 49 H  32.2714 41.5500 81.9321 0
M  V30 50 H  33.8672 41.0104 82.5124 0
M  V30 51 H  32.7829 37.6576 84.7965 0
M  V30 52 H  33.4110 36.4475 83.7251 0
M  V30 53 H  30.3557 38.1146 84.9252 0
M  V30 54 H  31.8181 35.4373 81.8802 0
M  V30 55 H  27.4889 35.1909 81.6074 0
M  V30 56 H  23.2830 34.5474 82.5388 0
M  V30 57 H  26.6691 37.5021 84.4161 0
M  V30 58 H  22.3727 38.3402 84.9203 0
M  V30 59 H  26.2404 37.6681 86.6381 0
M  V30 60 H  21.8746 42.6254 89.6049 0
M  V30 61 H  21.3456 43.1229 88.0095 0
M  V30 62 H  20.4206 41.9397 88.9039 0
M  V30 63 H  20.1600 41.5453 86.4711 0
M  V30 64 H  18.5256 39.6747 86.5637 0
M  V30 65 H  19.4663 39.7130 88.0418 0
M  V30 66 H  19.8268 38.5096 86.8087 0
M  V30 67 H  19.6831 40.7572 84.3242 0
M  V30 68 H  21.4290 40.8827 84.3357 0
M  V30 69 H  20.6056 39.3147 84.4673 0
M  V30 70 H  32.4169 39.8678 80.1725 0
M  V30 END ATOM
M  V30 BEGIN BOND
M  V30 1 1 1 2
M  V30 2 1 1 38
M  V30 3 1 1 39
M  V30 4 1 1 40
M  V30 5 1 2 3
M  V30 6 1 2 41
M  V30 7 1 2 42
M  V30 8 1 3 4
M  V30 9 1 3 8
M  V30 10 1 3 70
M  V30 11 1 4 5
M  V30 12 1 4 43
M  V30 13 1 4 44
M  V30 14 1 5 6
M  V30 15 1 5 45
M  V30 16 1 5 46
M  V30 17 1 6 7
M  V30 18 1 6 9
M  V30 19 1 7 8
M  V30 20 1 7 47
M  V30 21 1 7 48
M  V30 22 1 8 49
M  V30 23 1 8 50
M  V30 24 1 9 10
M  V30 25 1 9 51
M  V30 26 1 9 52
M  V30 27 2 10 11
M  V30 28 1 10 15
M  V30 29 1 11 12
M  V30 30 1 11 53
M  V30 31 2 12 13
M  V30 32 1 13 14
M  V30 33 1 13 16
M  V30 34 2 14 15
M  V30 35 1 15 54
M  V30 36 1 16 17
M  V30 37 1 16 55
M  V30 38 2 17 18
M  V30 39 1 17 23
M  V30 40 1 18 19
M  V30 41 2 19 20
M  V30 42 1 19 56
M  V30 43 1 20 21
M  V30 44 1 20 22
M  V30 45 2 22 23
M  V30 46 1 22 24
M  V30 47 1 23 57
M  V30 48 2 24 25
M  V30 49 1 24 26
M  V30 50 1 25 30
M  V30 51 1 25 58
M  V30 52 2 26 27
M  V30 53 1 26 59
M  V30 54 1 27 28
M  V30 55 1 27 29
M  V30 56 2 29 30
M  V30 57 1 29 31
M  V30 58 1 30 34
M  V30 59 2 31 32
M  V30 60 1 32 33
M  V30 61 1 32 34
M  V30 62 1 33 60
M  V30 63 1 33 61
M  V30 64 1 33 62
M  V30 65 1 34 35
M  V30 66 1 35 36
M  V30 67 1 35 37
M  V30 68 1 35 63
M  V30 69 1 36 64
M  V30 70 1 36 65
M  V30 71 1 36 66
M  V30 72 1 37 67
M  V30 73 1 37 68
M  V30 74 1 37 69
M  V30 END BOND
M  V30 END CTAB
M  END
> <s_m_entry_id>
674

> <s_m_entry_name>
result.1998

> <s_m_Source_Path>
D:\OneDrive - zju.edu.cn\DOC\A-Finished\LCK_VS\Planet\LCK-8617

> <s_m_Source_File>
glide-dock_SP_top1262_2_pv.maegz

> <i_m_Source_File_Index>
674

> <PLANET_affinity>
8.603

> <i_lp_mmshare_version>
54117

> <i_f3d_flags>
0

> <s_epik_input>
W0NIM11bQ0gyXU4xW0NIMl1bQ0gyXU4oW0NIMl1bQ0gyXTEpW0NIMl1jMltjSF1uYyhuW2NIXTIpW05IXWMzbltjSF1jKEYpYyhbY0hdMyktYyhbY0hdYzRGKVtjSF1jKGM0NSluKGMobjUpW0NIM10pW0NIXShbQ0gzXSlbQ0gzXQ==

> <s_epik_cmdline>
J2VwaWtfcHl0aG9uJywgJy1waCcsICc3LjAnLCAnLXRuJywgJzgnLCAnLW1hJywgJzUwMCcsICctaW1hZScsICc8aW5maWxlLm1hZT4nLCAnLW9tYWUnLCAnPG91dGZpbGUubWFlPic=

> <r_epik_Ionization_Penalty>
  0.1850

> <r_epik_Ionization_Penalty_Charging>
  0.1004

> <r_epik_Ionization_Penalty_Neutral>
  0.0846

> <r_epik_State_Penalty>
  0.2102

> <r_epik_Charging_Adjusted_Penalty>
0.310615

> <i_epik_Tot_Q>
1

> <i_epik_Tot_abs_Q>
1

> <s_lp_Force_Field>
S-OPLS

> <r_lp_Energy>
69.8689

> <b_lp_Chiralities_Consistent>
1

> <s_lp_Variant>
CCN1CCN(CC2=CN=C(NC3=NC=C(F)C(C4=CC(N(C(C)C)C(C)=N5)=C5C(F)=C4)=C3)N=C2)CC1-1

> <s_i_glide_gridfile>
glide-grid_1

> <i_i_glide_lignum>
744

> <i_i_glide_rotatable_bonds>
7

> <r_i_docking_score>
-7.81164655927908

> <r_i_glide_ligand_efficiency>
-0.211125582683218

> <r_i_glide_ligand_efficiency_sa>
-0.703517279211724

> <r_i_glide_ligand_efficiency_ln>
-1.69416300772948

> <r_i_glide_gscore>
-8.02184655927908

> <r_i_glide_lipo>
-2.73497397291659

> <r_i_glide_hbond>
-0.588915554893019

> <r_i_glide_metal>
0

> <r_i_glide_rewards>
-1.59715276339344

> <r_i_glide_evdw>
-46.0054016113281

> <r_i_glide_ecoul>
-6.84722709655762

> <r_i_glide_erotb>
0.278030645382576

> <r_i_glide_esite>
-0.0514807684085658

> <r_i_glide_emodel>
-77.3972024537377

> <r_i_glide_energy>
-52.8526287078857

> <r_i_glide_einternal>
11.6254043579102

> <i_i_glide_confnum>
35

> <i_i_glide_posenum>
76

> <r_i_glide_eff_state_penalty>
0.2102

> <r_lp_tautomer_probability>
1

> <s_m_subgroup_title>
glide-dock_SP_top1262_2_pv

> <s_m_subgroupid>
glide-dock_SP_top1262_2_pv

> <b_m_subgroup_collapsed>
0

$$$$
COCCOC1=CC=C(NC2=NC=C(F)C(NC3=CC=CC(NC(C=C)=O)=C3)=N2)C=C1
                    3D
 Schrodinger Suite 2021-3.
  0  0  0     0  0            999 V3000
M  V30 BEGIN CTAB
M  V30 COUNTS 53 55 0 0 0
M  V30 BEGIN ATOM
M  V30 1 C  34.3401 36.1327 87.6429 0
M  V30 2 O  33.2831 36.6360 86.8424 0
M  V30 3 C  33.5048 37.9419 86.3275 0
M  V30 4 C  32.2599 38.3752 85.5411 0
M  V30 5 O  32.1010 37.5213 84.4054 0
M  V30 6 C  30.8381 37.2718 83.9080 0
M  V30 7 C  30.7146 36.1861 83.0411 0
M  V30 8 C  29.4664 35.8137 82.5497 0
M  V30 9 C  28.3264 36.5250 82.9226 0
M  V30 10 C  28.4538 37.6542 83.7377 0
M  V30 11 C  29.7015 38.0261 84.2281 0
M  V30 12 N  27.0895 36.0679 82.4435 0
M  V30 13 C  25.7955 36.1263 82.9809 0
M  V30 14 N  24.8678 35.3912 82.3209 0
M  V30 15 C  23.6270 35.3386 82.8666 0
M  V30 16 C  23.2967 36.0042 84.0440 0
M  V30 17 F  22.0835 35.8074 84.6065 0
M  V30 18 C  24.2812 36.8388 84.5994 0
M  V30 19 N  25.5470 36.8500 84.1065 0
M  V30 20 N  24.0921 37.6458 85.7311 0
M  V30 21 C  23.0039 38.4146 86.1833 0
M  V30 22 C  23.1840 39.1496 87.3583 0
M  V30 23 C  22.1509 39.9292 87.8763 0
M  V30 24 C  20.9105 39.9546 87.2406 0
M  V30 25 C  20.7003 39.2146 86.0748 0
M  V30 26 C  21.7722 38.5002 85.5164 0
M  V30 27 N  19.3913 39.2249 85.5610 0
M  V30 28 C  18.8093 38.4027 84.6572 0
M  V30 29 O  19.3782 37.5015 84.0448 0
M  V30 30 C  17.4024 38.6516 84.4417 0
M  V30 31 C  16.5525 39.0138 85.4243 0
M  V30 32 H  34.0620 35.1569 88.0427 0
M  V30 33 H  35.2530 36.0098 87.0576 0
M  V30 34 H  34.5493 36.7866 88.4902 0
M  V30 35 H  34.3828 37.9499 85.6790 0
M  V30 36 H  33.6868 38.6450 87.1428 0
M  V30 37 H  32.3509 39.4106 85.2111 0
M  V30 38 H  31.4108 38.3176 86.2246 0
M  V30 39 H  31.5884 35.6101 82.7732 0
M  V30 40 H  29.3917 34.9523 81.9006 0
M  V30 41 H  27.5978 38.2538 84.0018 0
M  V30 42 H  29.7677 38.8980 84.8602 0
M  V30 43 H  27.1557 35.5545 81.5704 0
M  V30 44 H  22.8825 34.7565 82.3487 0
M  V30 45 H  24.9630 37.8748 86.1853 0
M  V30 46 H  24.1308 39.1238 87.8790 0
M  V30 47 H  22.3100 40.5049 88.7762 0
M  V30 48 H  20.1098 40.5438 87.6634 0
M  V30 49 H  21.6444 38.0127 84.5669 0
M  V30 50 H  18.7751 39.8951 85.9974 0
M  V30 51 H  17.0495 38.4930 83.4323 0
M  V30 52 H  16.8830 39.1563 86.4426 0
M  V30 53 H  15.4997 39.1688 85.2440 0
M  V30 END ATOM
M  V30 BEGIN BOND
M  V30 1 1 1 2
M  V30 2 1 1 32
M  V30 3 1 1 33
M  V30 4 1 1 34
M  V30 5 1 2 3
M  V30 6 1 3 4
M  V30 7 1 3 35
M  V30 8 1 3 36
M  V30 9 1 4 5
M  V30 10 1 4 37
M  V30 11 1 4 38
M  V30 12 1 5 6
M  V30 13 2 6 7
M  V30 14 1 6 11
M  V30 15 1 7 8
M  V30 16 1 7 39
M  V30 17 2 8 9
M  V30 18 1 8 40
M  V30 19 1 9 10
M  V30 20 1 9 12
M  V30 21 2 10 11
M  V30 22 1 10 41
M  V30 23 1 11 42
M  V30 24 1 12 13
M  V30 25 1 12 43
M  V30 26 2 13 14
M  V30 27 1 13 19
M  V30 28 1 14 15
M  V30 29 2 15 16
M  V30 30 1 15 44
M  V30 31 1 16 17
M  V30 32 1 16 18
M  V30 33 2 18 19
M  V30 34 1 18 20
M  V30 35 1 20 21
M  V30 36 1 20 45
M  V30 37 2 21 22
M  V30 38 1 21 26
M  V30 39 1 22 23
M  V30 40 1 22 46
M  V30 41 2 23 24
M  V30 42 1 23 47
M  V30 43 1 24 25
M  V30 44 1 24 48
M  V30 45 2 25 26
M  V30 46 1 25 27
M  V30 47 1 26 49
M  V30 48 1 27 28
M  V30 49 1 27 50
M  V30 50 2 28 29
M  V30 51 1 28 30
M  V30 52 2 30 31
M  V30 53 1 30 51
M  V30 54 1 31 52
M  V30 55 1 31 53
M  V30 END BOND
M  V30 END CTAB
M  END
> <s_m_entry_id>
675

> <s_m_entry_name>
result.2158

> <s_m_Source_Path>
D:\OneDrive - zju.edu.cn\DOC\A-Finished\LCK_VS\Planet\LCK-8617

> <s_m_Source_File>
glide-dock_SP_top1262_2_pv.maegz

> <i_m_Source_File_Index>
675

> <PLANET_affinity>
7.011

> <i_lp_mmshare_version>
54117

> <i_f3d_flags>
0

> <s_epik_input>
W0NIM11PW0NIMl1bQ0gyXU9jMVtjSF1bY0hdYyhbY0hdW2NIXTEpW05IXWMybltjSF1jKEYpYyhuMilbTkhdYzNbY0hdW2NIXVtjSF1jKFtjSF0zKVtOSF1DKD1PKVtDSF09W0NIMl0=

> <s_epik_cmdline>
J2VwaWtfcHl0aG9uJywgJy1waCcsICc3LjAnLCAnLXRuJywgJzgnLCAnLW1hJywgJzUwMCcsICctaW1hZScsICc8aW5maWxlLm1hZT4nLCAnLW9tYWUnLCAnPG91dGZpbGUubWFlPic=

> <r_epik_Ionization_Penalty>
  0.0020

> <r_epik_Ionization_Penalty_Charging>
  0.0000

> <r_epik_Ionization_Penalty_Neutral>
  0.0020

> <r_epik_State_Penalty>
  0.0000

> <r_epik_Charging_Adjusted_Penalty>
0

> <i_epik_Tot_Q>
0

> <i_epik_Tot_abs_Q>
0

> <s_lp_Force_Field>
S-OPLS

> <r_lp_Energy>
48.0798

> <b_lp_Chiralities_Consistent>
1

> <s_lp_Variant>
COCCOC1=CC=C(NC2=NC=C(F)C(NC3=CC=CC(NC(C=C)=O)=C3)=N2)C=C1-1

> <s_i_glide_gridfile>
glide-grid_1

> <i_i_glide_lignum>
2704

> <i_i_glide_rotatable_bonds>
11

> <r_i_docking_score>
-7.81150667889342

> <r_i_glide_ligand_efficiency>
-0.251984086415917

> <r_i_glide_ligand_efficiency_sa>
-0.791577932871392

> <r_i_glide_ligand_efficiency_ln>
-1.76173415002005

> <r_i_glide_gscore>
-7.81150667889342

> <r_i_glide_lipo>
-2.44008365656206

> <r_i_glide_hbond>
-0.52888106160665

> <r_i_glide_metal>
0

> <r_i_glide_rewards>
-2.32394178555248

> <r_i_glide_evdw>
-45.9698448181152

> <r_i_glide_ecoul>
-6.62577104568481

> <r_i_glide_erotb>
0.773757722586253

> <r_i_glide_esite>
0

> <r_i_glide_emodel>
-74.4421036817953

> <r_i_glide_energy>
-52.5956158638

> <r_i_glide_einternal>
9.81951236724854

> <i_i_glide_confnum>
145

> <i_i_glide_posenum>
206

> <r_i_glide_eff_state_penalty>
0

> <r_lp_tautomer_probability>
1

> <s_m_subgroup_title>
glide-dock_SP_top1262_2_pv

> <s_m_subgroupid>
glide-dock_SP_top1262_2_pv

> <b_m_subgroup_collapsed>
0

$$$$
CS(=O)(NC1=CC=C(C(N2CCC(C3=CC=C(N4C[C@H](C)N(C)CC4)C(C)=C3O5)=C(C5=O)C2)=O)C=...
                    3D
 Schrodinger Suite 2021-3.
  0  0  0     0  0            999 V3000
M  V30 BEGIN CTAB
M  V30 COUNTS 73 77 0 0 0
M  V30 BEGIN ATOM
M  V30 1 C  22.1151 43.7212 88.4022 0
M  V30 2 S  21.6984 42.1664 89.3799 0
M  V30 3 O  22.9915 41.5367 89.6661 0
M  V30 4 O  20.9514 42.6443 90.5478 0
M  V30 5 N  20.7861 41.2964 88.4429 0 CHG=-1
M  V30 6 C  21.2680 40.4242 87.4933 0
M  V30 7 C  22.5011 40.6268 86.8544 0
M  V30 8 C  23.0184 39.7139 85.9485 0
M  V30 9 C  22.3423 38.5226 85.6912 0
M  V30 10 C  21.0743 38.3470 86.2344 0
M  V30 11 C  20.5153 39.2794 87.1235 0
M  V30 12 O  19.2558 39.0827 87.6846 0
M  V30 13 C  18.4890 37.9133 87.3676 0
M  V30 14 F  19.1167 36.7964 87.7463 0
M  V30 15 F  17.3514 37.9565 88.0435 0
M  V30 16 F  18.1758 37.8632 86.0706 0
M  V30 17 C  22.9468 37.4251 84.8494 0
M  V30 18 O  22.2210 36.8361 84.0434 0
M  V30 19 N  24.2577 37.1038 85.0257 0
M  V30 20 C  25.0844 37.5198 86.1768 0
M  V30 21 C  26.3250 38.2464 85.6258 0
M  V30 22 C  24.8720 36.0847 84.1641 0
M  V30 23 C  26.3230 36.4822 83.8611 0
M  V30 24 C  26.9766 35.6555 82.8437 0
M  V30 25 O  26.4438 34.7565 82.2007 0
M  V30 26 O  28.3319 35.8419 82.6459 0
M  V30 27 C  29.0371 36.8795 83.2434 0
M  V30 28 C  28.4307 37.6984 84.2041 0
M  V30 29 C  27.0377 37.3780 84.5900 0
M  V30 30 C  30.3727 37.0857 82.8532 0
M  V30 31 C  31.0268 36.1201 81.8629 0
M  V30 32 C  31.1050 38.1488 83.4252 0
M  V30 33 C  30.4740 38.9785 84.3604 0
M  V30 34 C  29.1550 38.7634 84.7435 0
M  V30 35 N  32.4144 38.4241 83.0385 0
M  V30 36 C  32.7225 38.8815 81.6726 0
M  V30 37 C  33.0826 40.3898 81.5237 0 CFG=2
M  V30 38 C  33.5892 40.6955 80.0964 0
M  V30 39 N  34.1930 40.7540 82.5481 0 CHG=1 CFG=1
M  V30 40 C  34.5698 42.2539 82.5650 0
M  V30 41 C  33.7269 40.3596 83.9641 0
M  V30 42 C  33.4544 38.8465 83.9860 0
M  V30 43 H  22.7064 44.3726 89.0432 0
M  V30 44 H  21.1999 44.2272 88.1224 0
M  V30 45 H  22.6758 43.4816 87.5038 0
M  V30 46 H  23.1065 41.4883 87.0668 0
M  V30 47 H  23.9711 39.9254 85.4900 0
M  V30 48 H  20.5480 37.4405 85.9746 0
M  V30 49 H  24.5533 38.0794 86.9475 0
M  V30 50 H  25.4069 36.6132 86.6917 0
M  V30 51 H  26.0411 39.1889 85.1587 0
M  V30 52 H  26.9898 38.5065 86.4467 0
M  V30 53 H  24.8681 35.1419 84.7104 0
M  V30 54 H  24.2989 35.9056 83.2515 0
M  V30 55 H  32.0980 36.0133 82.0392 0
M  V30 56 H  30.6201 35.1097 81.9474 0
M  V30 57 H  30.8755 36.4657 80.8437 0
M  V30 58 H  31.0004 39.8097 84.8037 0
M  V30 59 H  28.7192 39.4337 85.4715 0
M  V30 60 H  33.5580 38.2680 81.3268 0
M  V30 61 H  31.8986 38.6563 80.9922 0
M  V30 62 H  32.2202 41.0133 81.7813 0
M  V30 63 H  32.8745 40.3477 79.3506 0
M  V30 64 H  33.7149 41.7615 79.9142 0
M  V30 65 H  34.5383 40.2008 79.8850 0
M  V30 66 H  33.6824 42.8241 82.8437 0
M  V30 67 H  35.3590 42.3829 83.3063 0
M  V30 68 H  34.9422 42.5359 81.5806 0
M  V30 69 H  32.8435 40.9573 84.1995 0
M  V30 70 H  34.5319 40.6207 84.6543 0
M  V30 71 H  33.1589 38.5572 84.9963 0
M  V30 72 H  34.3682 38.2863 83.7802 0
M  V30 73 H  35.0099 40.1987 82.3298 0
M  V30 END ATOM
M  V30 BEGIN BOND
M  V30 1 1 1 2
M  V30 2 1 1 43
M  V30 3 1 1 44
M  V30 4 1 1 45
M  V30 5 2 2 3
M  V30 6 2 2 4
M  V30 7 1 2 5
M  V30 8 1 5 6
M  V30 9 2 6 7
M  V30 10 1 6 11
M  V30 11 1 7 8
M  V30 12 1 7 46
M  V30 13 2 8 9
M  V30 14 1 8 47
M  V30 15 1 9 10
M  V30 16 1 9 17
M  V30 17 2 10 11
M  V30 18 1 10 48
M  V30 19 1 11 12
M  V30 20 1 12 13
M  V30 21 1 13 14
M  V30 22 1 13 15
M  V30 23 1 13 16
M  V30 24 2 17 18
M  V30 25 1 17 19
M  V30 26 1 19 20
M  V30 27 1 19 22
M  V30 28 1 20 21
M  V30 29 1 20 49
M  V30 30 1 20 50
M  V30 31 1 21 29
M  V30 32 1 21 51
M  V30 33 1 21 52
M  V30 34 1 22 23
M  V30 35 1 22 53
M  V30 36 1 22 54
M  V30 37 1 23 24
M  V30 38 2 23 29
M  V30 39 2 24 25
M  V30 40 1 24 26
M  V30 41 1 26 27
M  V30 42 1 27 28
M  V30 43 2 27 30
M  V30 44 1 28 29
M  V30 45 2 28 34
M  V30 46 1 30 31
M  V30 47 1 30 32
M  V30 48 1 31 55
M  V30 49 1 31 56
M  V30 50 1 31 57
M  V30 51 2 32 33
M  V30 52 1 32 35
M  V30 53 1 33 34
M  V30 54 1 33 58
M  V30 55 1 34 59
M  V30 56 1 35 36
M  V30 57 1 35 42
M  V30 58 1 36 37
M  V30 59 1 36 60
M  V30 60 1 36 61
M  V30 61 1 37 38
M  V30 62 1 37 39
M  V30 63 1 37 62
M  V30 64 1 38 63
M  V30 65 1 38 64
M  V30 66 1 38 65
M  V30 67 1 39 40
M  V30 68 1 39 41
M  V30 69 1 39 73
M  V30 70 1 40 66
M  V30 71 1 40 67
M  V30 72 1 40 68
M  V30 73 1 41 42
M  V30 74 1 41 69
M  V30 75 1 41 70
M  V30 76 1 42 71
M  V30 77 1 42 72
M  V30 END BOND
M  V30 END CTAB
M  END
> <s_m_entry_id>
678

> <s_m_entry_name>
result.7963

> <s_m_Source_Path>
D:\OneDrive - zju.edu.cn\DOC\A-Finished\LCK_VS\Planet\LCK-8617

> <s_m_Source_File>
glide-dock_SP_top1262_2_pv.maegz

> <i_m_Source_File_Index>
678

> <PLANET_affinity>
8.621

> <i_lp_mmshare_version>
54117

> <i_f3d_flags>
0

> <s_epik_input>
W0NIM11TKD1PKSg9TylbTkhdYzFbY0hdW2NIXWMoW2NIXWMxT0MoRikoRilGKUMoPU8pTihbQ0gyXTIpW0NIMl1bQ0gyXWMoYzIzKWM0YyhvYzM9TyljKFtDSDNdKWMoW2NIXVtjSF00KU41W0NIMl1bQ0BIXShbQ0gzXSlOKFtDSDNdKVtDSDJdW0NIMl01

> <s_epik_cmdline>
J2VwaWtfcHl0aG9uJywgJy1waCcsICc3LjAnLCAnLXRuJywgJzgnLCAnLW1hJywgJzUwMCcsICctaW1hZScsICc8aW5maWxlLm1hZT4nLCAnLW9tYWUnLCAnPG91dGZpbGUubWFlPic=

> <r_epik_Ionization_Penalty>
  0.1461

> <r_epik_Ionization_Penalty_Charging>
  0.1461

> <r_epik_Ionization_Penalty_Neutral>
  0.0000

> <r_epik_State_Penalty>
  0.1285

> <r_epik_Charging_Adjusted_Penalty>
0.27464

> <i_epik_Tot_Q>
0

> <i_epik_Tot_abs_Q>
2

> <s_epik_Chemistry_Notes>
This compound has an imine and may undergo hydrolysis.

> <s_lp_Force_Field>
S-OPLS

> <r_lp_Energy>
88.553

> <b_lp_Chiralities_Consistent>
1

> <s_lp_Variant>
CS(=O)(NC1=CC=C(C(N2CCC(C3=CC=C(N4C[C@H](C)N(C)CC4)C(C)=C3O5)=C(C5=O)C2)=O)C=...-1

> <s_i_glide_gridfile>
glide-grid_1

> <i_i_glide_lignum>
713

> <i_i_glide_rotatable_bonds>
7

> <r_i_docking_score>
-7.80844829612287

> <r_i_glide_ligand_efficiency>
-0.185915435621973

> <r_i_glide_ligand_efficiency_sa>
-0.646247007112497

> <r_i_glide_ligand_efficiency_ln>
-1.64816226652633

> <r_i_glide_gscore>
-7.93694829612287

> <r_i_glide_lipo>
-2.652773851646

> <r_i_glide_hbond>
-0.501343512466774

> <r_i_glide_metal>
0

> <r_i_glide_rewards>
-1.69207822290544

> <r_i_glide_evdw>
-42.6182327270508

> <r_i_glide_ecoul>
-6.50287294387817

> <r_i_glide_erotb>
0.16061266672561

> <r_i_glide_esite>
-0.145022797895997

> <r_i_glide_emodel>
-74.9031822489975

> <r_i_glide_energy>
-49.121105670929

> <r_i_glide_einternal>
3.17819595336914

> <i_i_glide_confnum>
40

> <i_i_glide_posenum>
332

> <r_i_glide_eff_state_penalty>
0.1285

> <s_m_subgroup_title>
glide-dock_SP_top1262_2_pv

> <s_m_subgroupid>
glide-dock_SP_top1262_2_pv

> <b_m_subgroup_collapsed>
0

$$$$
O=C1NC2=C(C=C(NC3CCN(CC)CC3)C=C2)/C1=C(C4=CC=CC(F)=C4)/C5=NC=C(C)N5
                    3D
 Schrodinger Suite 2021-3.
  0  0  0     0  0            999 V3000
M  V30 BEGIN CTAB
M  V30 COUNTS 62 66 0 0 0
M  V30 BEGIN ATOM
M  V30 1 F  26.1764 39.5248 88.4956 0
M  V30 2 C  25.2423 39.9039 87.5941 0
M  V30 3 C  24.3135 38.9774 87.1214 0
M  V30 4 C  25.2099 41.2180 87.1301 0
M  V30 5 C  24.2495 41.6032 86.1945 0
M  V30 6 C  23.3234 40.6722 85.7227 0
M  V30 7 C  23.3499 39.3465 86.1771 0
M  V30 8 C  22.3512 38.3633 85.6976 0
M  V30 9 C  20.9923 38.6256 86.2125 0
M  V30 10 N  20.3032 39.7463 86.1782 0
M  V30 11 C  19.1464 39.4724 86.7604 0
M  V30 12 C  19.0608 38.1586 87.2008 0
M  V30 13 C  17.9739 37.3411 87.8598 0
M  V30 14 N  20.2821 37.6449 86.8639 0
M  V30 15 C  22.7225 37.3320 84.8753 0
M  V30 16 C  21.7626 36.4039 84.2682 0
M  V30 17 O  20.5372 36.3570 84.3628 0
M  V30 18 N  22.4692 35.5566 83.5125 0
M  V30 19 C  24.0405 36.9106 84.3438 0
M  V30 20 C  23.8042 35.8311 83.5264 0
M  V30 21 C  25.3595 37.3772 84.4628 0
M  V30 22 C  26.4182 36.7510 83.7810 0
M  V30 23 C  26.1246 35.6428 82.9689 0
M  V30 24 C  24.8168 35.1899 82.8336 0
M  V30 25 N  27.7075 37.2701 84.0251 0
M  V30 26 C  28.9518 37.1927 83.2409 0 CFG=2
M  V30 27 C  29.2246 35.8257 82.5745 0
M  V30 28 C  30.6540 35.6622 82.0344 0
M  V30 29 N  31.6689 35.9494 83.1623 0 CHG=1 CFG=1
M  V30 30 C  33.1271 35.7186 82.6933 0
M  V30 31 C  33.4003 34.2249 82.4416 0
M  V30 32 C  31.4954 37.4006 83.6665 0
M  V30 33 C  30.0761 37.5560 84.2371 0
M  V30 34 H  24.3581 37.9576 87.4637 0
M  V30 35 H  25.9289 41.9361 87.4960 0
M  V30 36 H  24.2189 42.6225 85.8358 0
M  V30 37 H  22.5825 40.9862 85.0008 0
M  V30 38 H  18.3689 40.2196 86.8442 0
M  V30 39 H  17.2893 37.9575 88.4426 0
M  V30 40 H  17.3713 36.8157 87.1191 0
M  V30 41 H  18.3753 36.5857 88.5350 0
M  V30 42 H  20.5819 36.6911 87.0043 0
M  V30 43 H  22.0467 34.8114 82.9746 0
M  V30 44 H  25.5840 38.2386 85.0680 0
M  V30 45 H  26.8652 35.0762 82.4434 0
M  V30 46 H  24.5933 34.3566 82.1939 0
M  V30 47 H  27.6835 38.0866 84.6187 0
M  V30 48 H  28.8889 37.9519 82.4602 0
M  V30 49 H  28.9804 34.9992 83.2432 0
M  V30 50 H  28.6019 35.7446 81.6863 0
M  V30 51 H  30.8678 36.3589 81.2215 0
M  V30 52 H  30.8125 34.6491 81.6680 0
M  V30 53 H  33.2880 36.3384 81.8082 0
M  V30 54 H  33.7599 36.0813 83.5066 0
M  V30 55 H  34.4638 34.0570 82.2667 0
M  V30 56 H  33.1151 33.6108 83.2979 0
M  V30 57 H  32.8780 33.8483 81.5618 0
M  V30 58 H  31.6794 38.0683 82.8219 0
M  V30 59 H  32.2516 37.5779 84.4338 0
M  V30 60 H  29.9533 38.5876 84.5715 0
M  V30 61 H  29.9902 36.9423 85.1348 0
M  V30 62 H  31.4784 35.3219 83.9325 0
M  V30 END ATOM
M  V30 BEGIN BOND
M  V30 1 1 1 2
M  V30 2 2 2 3
M  V30 3 1 2 4
M  V30 4 1 3 7
M  V30 5 1 3 34
M  V30 6 2 4 5
M  V30 7 1 4 35
M  V30 8 1 5 6
M  V30 9 1 5 36
M  V30 10 2 6 7
M  V30 11 1 6 37
M  V30 12 1 7 8
M  V30 13 1 8 9
M  V30 14 2 8 15
M  V30 15 2 9 10
M  V30 16 1 9 14
M  V30 17 1 10 11
M  V30 18 2 11 12
M  V30 19 1 11 38
M  V30 20 1 12 13
M  V30 21 1 12 14
M  V30 22 1 13 39
M  V30 23 1 13 40
M  V30 24 1 13 41
M  V30 25 1 14 42
M  V30 26 1 15 16
M  V30 27 1 15 19
M  V30 28 2 16 17
M  V30 29 1 16 18
M  V30 30 1 18 20
M  V30 31 1 18 43
M  V30 32 2 19 20
M  V30 33 1 19 21
M  V30 34 1 20 24
M  V30 35 2 21 22
M  V30 36 1 21 44
M  V30 37 1 22 23
M  V30 38 1 22 25
M  V30 39 2 23 24
M  V30 40 1 23 45
M  V30 41 1 24 46
M  V30 42 1 25 26
M  V30 43 1 25 47
M  V30 44 1 26 27
M  V30 45 1 26 33
M  V30 46 1 26 48
M  V30 47 1 27 28
M  V30 48 1 27 49
M  V30 49 1 27 50
M  V30 50 1 28 29
M  V30 51 1 28 51
M  V30 52 1 28 52
M  V30 53 1 29 30
M  V30 54 1 29 32
M  V30 55 1 29 62
M  V30 56 1 30 31
M  V30 57 1 30 53
M  V30 58 1 30 54
M  V30 59 1 31 55
M  V30 60 1 31 56
M  V30 61 1 31 57
M  V30 62 1 32 33
M  V30 63 1 32 58
M  V30 64 1 32 59
M  V30 65 1 33 60
M  V30 66 1 33 61
M  V30 END BOND
M  V30 END CTAB
M  END
> <s_m_entry_id>
681

> <s_m_entry_name>
result.2243

> <s_m_Source_Path>
D:\OneDrive - zju.edu.cn\DOC\A-Finished\LCK_VS\Planet\LCK-8617

> <s_m_Source_File>
glide-dock_SP_top1262_2_pv.maegz

> <i_m_Source_File_Index>
681

> <PLANET_affinity>
8.851

> <i_lp_mmshare_version>
54117

> <i_f3d_flags>
0

> <s_epik_input>
W0NIM11jKFtuSF0xKVtjSF1uYzFDKFxjKFtjSF1jMkYpW2NIXVtjSF1bY0hdMik9QzMvQyg9TylbTkhdYyhjMzQpW2NIXVtjSF1jKFtjSF00KVtOSF1bQ0hdNVtDSDJdW0NIMl1OKFtDSDJdW0NIM10pW0NIMl1bQ0gyXTU=

> <s_epik_cmdline>
J2VwaWtfcHl0aG9uJywgJy1waCcsICc3LjAnLCAnLXRuJywgJzgnLCAnLW1hJywgJzUwMCcsICctaW1hZScsICc8aW5maWxlLm1hZT4nLCAnLW9tYWUnLCAnPG91dGZpbGUubWFlPic=

> <r_epik_Ionization_Penalty>
  0.0466

> <r_epik_Ionization_Penalty_Charging>
  0.0466

> <r_epik_Ionization_Penalty_Neutral>
  0.0000

> <r_epik_State_Penalty>
  0.2457

> <r_epik_Charging_Adjusted_Penalty>
0.292253

> <i_epik_Tot_Q>
1

> <i_epik_Tot_abs_Q>
1

> <s_lp_Force_Field>
S-OPLS

> <r_lp_Energy>
60.6094

> <b_lp_Chiralities_Consistent>
1

> <s_lp_Variant>
O=C1NC2=C(C=C(NC3CCN(CC)CC3)C=C2)/C1=C(C4=CC=CC(F)=C4)/C5=NC=C(C)N5-2

> <s_i_glide_gridfile>
glide-grid_1

> <i_i_glide_lignum>
573

> <i_i_glide_rotatable_bonds>
5

> <r_i_docking_score>
-7.80623227767466

> <r_i_glide_ligand_efficiency>
-0.236552493262869

> <r_i_glide_ligand_efficiency_sa>
-0.758750242102432

> <r_i_glide_ligand_efficiency_ln>
-1.73606564004726

> <r_i_glide_gscore>
-8.05193227767466

> <r_i_glide_lipo>
-3.01832570534194

> <r_i_glide_hbond>
-0.458145869406298

> <r_i_glide_metal>
0

> <r_i_glide_rewards>
-1.63600051891384

> <r_i_glide_evdw>
-40.8880844116211

> <r_i_glide_ecoul>
-8.64406776428223

> <r_i_glide_erotb>
0.401554201210797

> <r_i_glide_esite>
0

> <r_i_glide_emodel>
-74.5643499409862

> <r_i_glide_energy>
-49.5321521759033

> <r_i_glide_einternal>
6.57371139526367

> <i_i_glide_confnum>
19

> <i_i_glide_posenum>
378

> <r_i_glide_eff_state_penalty>
0.2457

> <s_m_subgroup_title>
glide-dock_SP_top1262_2_pv

> <s_m_subgroupid>
glide-dock_SP_top1262_2_pv

> <b_m_subgroup_collapsed>
0

$$$$
O=C(C=C)N1CCN(C2=NC=NC3=C2C=C(Cl)C(C4=C(O)C=CC=C4F)=C3F)CC1
                    3D
 Schrodinger Suite 2021-3.
  0  0  0     0  0            999 V3000
M  V30 BEGIN CTAB
M  V30 COUNTS 47 50 0 0 0
M  V30 BEGIN ATOM
M  V30 1 C  16.6620 37.5558 87.1761 0
M  V30 2 C  17.9064 37.1554 87.4945 0
M  V30 3 C  19.0418 38.0574 87.4494 0
M  V30 4 O  18.8839 39.2643 87.6434 0
M  V30 5 N  20.2790 37.5196 87.2430 0
M  V30 6 C  20.4602 36.1029 86.8575 0
M  V30 7 C  21.9511 35.7703 86.6342 0
M  V30 8 N  22.7035 36.7371 85.8197 0
M  V30 9 C  22.2576 38.1294 85.9525 0
M  V30 10 C  21.4629 38.4095 87.2437 0
M  V30 11 C  23.4750 36.3573 84.7312 0
M  V30 12 N  22.8324 35.6271 83.7845 0
M  V30 13 C  23.5586 35.2913 82.6956 0
M  V30 14 N  24.8512 35.6081 82.4454 0
M  V30 15 C  24.8322 36.7776 84.5841 0
M  V30 16 C  25.4921 36.3612 83.3894 0
M  V30 17 C  25.5541 37.5378 85.5354 0
M  V30 18 C  26.8713 37.9106 85.2957 0
M  V30 19 Cl 27.6831 38.7666 86.5605 0
M  V30 20 C  27.5193 37.5598 84.0990 0
M  V30 21 C  26.8364 36.7570 83.1717 0
M  V30 22 F  27.4650 36.3567 82.0433 0
M  V30 23 C  28.9136 38.0195 83.7976 0
M  V30 24 C  29.2323 39.3892 83.6907 0
M  V30 25 O  28.2730 40.3612 83.8155 0
M  V30 26 C  30.5398 39.8006 83.4292 0
M  V30 27 C  31.5455 38.8566 83.2428 0
M  V30 28 C  31.2433 37.4995 83.3162 0
M  V30 29 C  29.9411 37.0835 83.5891 0
M  V30 30 F  29.6858 35.7555 83.6442 0
M  V30 31 H  16.4533 38.5631 86.8434 0
M  V30 32 H  15.8280 36.8733 87.2431 0
M  V30 33 H  18.0783 36.1372 87.8079 0
M  V30 34 H  20.0913 35.4238 87.6275 0
M  V30 35 H  19.9362 35.9266 85.9181 0
M  V30 36 H  22.0300 34.7625 86.2237 0
M  V30 37 H  22.4759 35.7584 87.5915 0
M  V30 38 H  21.5849 38.3311 85.1168 0
M  V30 39 H  23.1000 38.8189 85.9002 0
M  V30 40 H  21.1916 39.4665 87.2230 0
M  V30 41 H  22.0876 38.2361 88.1200 0
M  V30 42 H  23.0347 34.7566 81.9196 0
M  V30 43 H  25.0813 37.8182 86.4645 0
M  V30 44 H  28.6542 41.2354 83.9310 0
M  V30 45 H  30.7821 40.8523 83.3541 0
M  V30 46 H  32.5558 39.1771 83.0329 0
M  V30 47 H  32.0178 36.7624 83.1606 0
M  V30 END ATOM
M  V30 BEGIN BOND
M  V30 1 2 1 2
M  V30 2 1 1 31
M  V30 3 1 1 32
M  V30 4 1 2 3
M  V30 5 1 2 33
M  V30 6 2 3 4
M  V30 7 1 3 5
M  V30 8 1 5 6
M  V30 9 1 5 10
M  V30 10 1 6 7
M  V30 11 1 6 34
M  V30 12 1 6 35
M  V30 13 1 7 8
M  V30 14 1 7 36
M  V30 15 1 7 37
M  V30 16 1 8 9
M  V30 17 1 8 11
M  V30 18 1 9 10
M  V30 19 1 9 38
M  V30 20 1 9 39
M  V30 21 1 10 40
M  V30 22 1 10 41
M  V30 23 2 11 12
M  V30 24 1 11 15
M  V30 25 1 12 13
M  V30 26 2 13 14
M  V30 27 1 13 42
M  V30 28 1 14 16
M  V30 29 2 15 16
M  V30 30 1 15 17
M  V30 31 1 16 21
M  V30 32 2 17 18
M  V30 33 1 17 43
M  V30 34 1 18 19
M  V30 35 1 18 20
M  V30 36 2 20 21
M  V30 37 1 20 23
M  V30 38 1 21 22
M  V30 39 2 23 24
M  V30 40 1 23 29
M  V30 41 1 24 25
M  V30 42 1 24 26
M  V30 43 1 25 44
M  V30 44 2 26 27
M  V30 45 1 26 45
M  V30 46 1 27 28
M  V30 47 1 27 46
M  V30 48 2 28 29
M  V30 49 1 28 47
M  V30 50 1 29 30
M  V30 END BOND
M  V30 END CTAB
M  END
> <s_m_entry_id>
682

> <s_m_entry_name>
result.466

> <s_m_Source_Path>
D:\OneDrive - zju.edu.cn\DOC\A-Finished\LCK_VS\Planet\LCK-8617

> <s_m_Source_File>
glide-dock_SP_top1262_2_pv.maegz

> <i_m_Source_File_Index>
682

> <PLANET_affinity>
7.039

> <i_lp_mmshare_version>
54117

> <i_f3d_flags>
0

> <s_epik_input>
W0NIMl09W0NIXUMoPU8pTjFbQ0gyXVtDSDJdTihbQ0gyXVtDSDJdMSljMm5bY0hdbmMoYzIzKWMoRiljKGMoQ2wpW2NIXTMpLWM0YyhbT0hdKVtjSF1bY0hdW2NIXWM0Rg==

> <s_epik_cmdline>
J2VwaWtfcHl0aG9uJywgJy1waCcsICc3LjAnLCAnLXRuJywgJzgnLCAnLW1hJywgJzUwMCcsICctaW1hZScsICc8aW5maWxlLm1hZT4nLCAnLW9tYWUnLCAnPG91dGZpbGUubWFlPic=

> <r_epik_Ionization_Penalty>
  0.0098

> <r_epik_Ionization_Penalty_Charging>
  0.0000

> <r_epik_Ionization_Penalty_Neutral>
  0.0098

> <r_epik_State_Penalty>
  0.0073

> <r_epik_Charging_Adjusted_Penalty>
0.00726581

> <i_epik_Tot_Q>
0

> <i_epik_Tot_abs_Q>
0

> <s_lp_Force_Field>
S-OPLS

> <r_lp_Energy>
64.3587

> <b_lp_Chiralities_Consistent>
1

> <s_lp_Variant>
O=C(C=C)N1CCN(C2=NC=NC3=C2C=C(Cl)C(C4=C(O)C=CC=C4F)=C3F)CC1-1

> <s_i_glide_gridfile>
glide-grid_1

> <i_i_glide_lignum>
2645

> <i_i_glide_rotatable_bonds>
5

> <r_i_docking_score>
-7.80431908597608

> <r_i_glide_ligand_efficiency>
-0.260143969532536

> <r_i_glide_ligand_efficiency_sa>
-0.808327797442939

> <r_i_glide_ligand_efficiency_ln>
-1.77322633120097

> <r_i_glide_gscore>
-7.81161908597608

> <r_i_glide_lipo>
-3.14745657940969

> <r_i_glide_hbond>
-0.0349628438127525

> <r_i_glide_metal>
0

> <r_i_glide_rewards>
-2.58536626362774

> <r_i_glide_evdw>
-43.7041397094727

> <r_i_glide_ecoul>
-1.88556790351868

> <r_i_glide_erotb>
0.42850504509267

> <r_i_glide_esite>
-0.0042962732171343

> <r_i_glide_emodel>
-65.6720807503272

> <r_i_glide_energy>
-45.5897076129913

> <r_i_glide_einternal>
3.34748220443726

> <i_i_glide_confnum>
334

> <i_i_glide_posenum>
339

> <r_i_glide_eff_state_penalty>
0.0073

> <r_lp_tautomer_probability>
1

> <s_m_subgroup_title>
glide-dock_SP_top1262_2_pv

> <s_m_subgroupid>
glide-dock_SP_top1262_2_pv

> <b_m_subgroup_collapsed>
0

$$$$
O=C1C2=C(N(C3=CC=C(F)C=C3)N=C2)N=CN1CC4(O)CCN(C(C[C@@H](N5N=C(F)C=C5)C(F)F)=O...
                    3D
 Schrodinger Suite 2021-3.
  0  0  0     0  0            999 V3000
M  V30 BEGIN CTAB
M  V30 COUNTS 61 65 0 0 0
M  V30 BEGIN ATOM
M  V30 1 C  28.4847 35.5566 82.5358 0
M  V30 2 C  29.8481 35.8123 82.4372 0
M  V30 3 C  30.3764 36.9699 82.9965 0
M  V30 4 F  31.7011 37.2205 82.8989 0
M  V30 5 C  29.5473 37.8773 83.6455 0
M  V30 6 C  28.1805 37.6243 83.7463 0
M  V30 7 C  27.6344 36.4514 83.2031 0
M  V30 8 N  26.2400 36.1678 83.3236 0
M  V30 9 N  25.6351 35.3352 82.4436 0
M  V30 10 C  24.3650 35.2868 82.7782 0
M  V30 11 C  25.3130 36.6196 84.2516 0
M  V30 12 C  24.1013 36.0532 83.9101 0
M  V30 13 N  25.5228 37.4395 85.3168 0
M  V30 14 C  24.4929 37.6851 86.0436 0
M  V30 15 N  23.2298 37.1662 85.7794 0
M  V30 16 C  22.9102 36.3568 84.6896 0
M  V30 17 O  21.7723 35.9590 84.4329 0
M  V30 18 C  22.1249 37.4672 86.7204 0
M  V30 19 C  21.3768 38.8097 86.5057 0
M  V30 20 O  20.0357 38.7049 86.9508 0
M  V30 21 C  21.8847 39.9597 87.4295 0
M  V30 22 C  21.4165 41.3908 87.0853 0
M  V30 23 N  21.6493 41.5827 85.6516 0
M  V30 24 C  20.8000 40.7497 84.7932 0
M  V30 25 C  21.1813 39.2728 85.0240 0
M  V30 26 C  22.6504 42.3381 85.1352 0
M  V30 27 O  22.9525 42.2939 83.9414 0
M  V30 28 C  23.3060 43.3953 86.0488 0
M  V30 29 C  24.2189 44.4312 85.3324 0 CFG=2
M  V30 30 C  25.5946 43.8629 84.8821 0
M  V30 31 F  26.4507 44.7869 84.4456 0
M  V30 32 F  26.2062 43.1388 85.8204 0
M  V30 33 N  24.3656 45.6252 86.1764 0
M  V30 34 N  25.1694 45.6047 87.2546 0
M  V30 35 C  25.0486 46.7941 87.8068 0
M  V30 36 F  25.7217 47.1252 88.8846 0
M  V30 37 C  24.1356 47.5948 87.1096 0
M  V30 38 C  23.6914 46.8146 86.0601 0
M  V30 39 H  28.1020 34.6524 82.0854 0
M  V30 40 H  30.4934 35.1170 81.9208 0
M  V30 41 H  29.9654 38.7807 84.0675 0
M  V30 42 H  27.5652 38.3601 84.2423 0
M  V30 43 H  23.6404 34.7048 82.2218 0
M  V30 44 H  24.6011 38.3237 86.9177 0
M  V30 45 H  22.4932 37.4382 87.7475 0
M  V30 46 H  21.3959 36.6557 86.7035 0
M  V30 47 H  19.5806 39.5254 86.7470 0
M  V30 48 H  22.9736 39.9696 87.3855 0
M  V30 49 H  21.6872 39.7360 88.4801 0
M  V30 50 H  21.8437 42.1684 87.7193 0
M  V30 51 H  20.3429 41.4926 87.2448 0
M  V30 52 H  19.7701 40.9123 85.1149 0
M  V30 53 H  20.8153 41.0680 83.7486 0
M  V30 54 H  20.4970 38.6095 84.4938 0
M  V30 55 H  22.1207 39.1329 84.4911 0
M  V30 56 H  23.8662 42.8900 86.8369 0
M  V30 57 H  22.4812 43.9339 86.5253 0
M  V30 58 H  23.6920 44.7790 84.4446 0
M  V30 59 H  25.4555 43.1769 84.0461 0
M  V30 60 H  23.8379 48.5999 87.3559 0
M  V30 61 H  22.9715 46.9808 85.2694 0
M  V30 END ATOM
M  V30 BEGIN BOND
M  V30 1 2 1 2
M  V30 2 1 1 7
M  V30 3 1 1 39
M  V30 4 1 2 3
M  V30 5 1 2 40
M  V30 6 1 3 4
M  V30 7 2 3 5
M  V30 8 1 5 6
M  V30 9 1 5 41
M  V30 10 2 6 7
M  V30 11 1 6 42
M  V30 12 1 7 8
M  V30 13 1 8 9
M  V30 14 1 8 11
M  V30 15 2 9 10
M  V30 16 1 10 12
M  V30 17 1 10 43
M  V30 18 2 11 12
M  V30 19 1 11 13
M  V30 20 1 12 16
M  V30 21 2 13 14
M  V30 22 1 14 15
M  V30 23 1 14 44
M  V30 24 1 15 16
M  V30 25 1 15 18
M  V30 26 2 16 17
M  V30 27 1 18 19
M  V30 28 1 18 45
M  V30 29 1 18 46
M  V30 30 1 19 20
M  V30 31 1 19 21
M  V30 32 1 19 25
M  V30 33 1 20 47
M  V30 34 1 21 22
M  V30 35 1 21 48
M  V30 36 1 21 49
M  V30 37 1 22 23
M  V30 38 1 22 50
M  V30 39 1 22 51
M  V30 40 1 23 24
M  V30 41 1 23 26
M  V30 42 1 24 25
M  V30 43 1 24 52
M  V30 44 1 24 53
M  V30 45 1 25 54
M  V30 46 1 25 55
M  V30 47 2 26 27
M  V30 48 1 26 28
M  V30 49 1 28 29
M  V30 50 1 28 56
M  V30 51 1 28 57
M  V30 52 1 29 30
M  V30 53 1 29 33
M  V30 54 1 29 58
M  V30 55 1 30 31
M  V30 56 1 30 32
M  V30 57 1 30 59
M  V30 58 1 33 34
M  V30 59 1 33 38
M  V30 60 2 34 35
M  V30 61 1 35 36
M  V30 62 1 35 37
M  V30 63 2 37 38
M  V30 64 1 37 60
M  V30 65 1 38 61
M  V30 END BOND
M  V30 END CTAB
M  END
> <s_m_entry_id>
684

> <s_m_entry_name>
result.1907

> <s_m_Source_Path>
D:\OneDrive - zju.edu.cn\DOC\A-Finished\LCK_VS\Planet\LCK-8617

> <s_m_Source_File>
glide-dock_SP_top1262_2_pv.maegz

> <i_m_Source_File_Index>
684

> <PLANET_affinity>
7.032

> <i_lp_mmshare_version>
54117

> <i_f3d_flags>
0

> <s_epik_input>
RmMxW2NIXVtjSF1jKFtjSF1bY0hdMSktbjJuW2NIXWMoYzIzKWMoPU8pbihbY0hdbjMpW0NIMl1DNChbT0hdKVtDSDJdW0NIMl1OKFtDSDJdW0NIMl00KUMoPU8pW0NIMl1bQ0BIXShbQ0hdKEYpRiluNW5jKEYpW2NIXVtjSF01

> <s_epik_cmdline>
J2VwaWtfcHl0aG9uJywgJy1waCcsICc3LjAnLCAnLXRuJywgJzgnLCAnLW1hJywgJzUwMCcsICctaW1hZScsICc8aW5maWxlLm1hZT4nLCAnLW9tYWUnLCAnPG91dGZpbGUubWFlPic=

> <r_epik_Ionization_Penalty>
  0.0000

> <r_epik_Ionization_Penalty_Charging>
  0.0000

> <r_epik_Ionization_Penalty_Neutral>
  0.0000

> <r_epik_State_Penalty>
  0.0000

> <r_epik_Charging_Adjusted_Penalty>
3.18916e-10

> <i_epik_Tot_Q>
0

> <i_epik_Tot_abs_Q>
0

> <s_lp_Force_Field>
S-OPLS

> <r_lp_Energy>
41.3224

> <b_lp_Chiralities_Consistent>
1

> <s_lp_Variant>
O=C1C2=C(N(C3=CC=C(F)C=C3)N=C2)N=CN1CC4(O)CCN(C(C[C@@H](N5N=C(F)C=C5)C(F)F)=O...-1

> <s_i_glide_gridfile>
glide-grid_1

> <i_i_glide_lignum>
2648

> <i_i_glide_rotatable_bonds>
9

> <r_i_docking_score>
-7.80278515012195

> <r_i_glide_ligand_efficiency>
-0.205336451318999

> <r_i_glide_ligand_efficiency_sa>
-0.690336098616794

> <r_i_glide_ligand_efficiency_ln>
-1.68251001305005

> <r_i_glide_gscore>
-7.80278515012195

> <r_i_glide_lipo>
-2.32863889215334

> <r_i_glide_hbond>
-0.355338165173475

> <r_i_glide_metal>
0

> <r_i_glide_rewards>
-2.08898161614657

> <r_i_glide_evdw>
-47.6525802612305

> <r_i_glide_ecoul>
-6.62606716156006

> <r_i_glide_erotb>
0.43497979629171

> <r_i_glide_esite>
-0.0882671856447472

> <r_i_glide_emodel>
-74.7130904103037

> <r_i_glide_energy>
-54.2786474227905

> <r_i_glide_einternal>
9.56430816650391

> <i_i_glide_confnum>
190

> <i_i_glide_posenum>
312

> <r_i_glide_eff_state_penalty>
0

> <r_lp_tautomer_probability>
1

> <s_m_subgroup_title>
glide-dock_SP_top1262_2_pv

> <s_m_subgroupid>
glide-dock_SP_top1262_2_pv

> <b_m_subgroup_collapsed>
0

$$$$
CN(C)CC1=C(OC)C=C(C(C2=C3C=NC=C2)=CN(C)C3=O)C=C1OC
                    3D
 Schrodinger Suite 2021-3.
  0  0  0     0  0            999 V3000
M  V30 BEGIN CTAB
M  V30 COUNTS 50 52 0 0 0
M  V30 BEGIN ATOM
M  V30 1 C  16.8313 37.0689 87.2432 0
M  V30 2 N  17.9919 37.7762 86.5233 0 CHG=1
M  V30 3 C  17.5037 38.7479 85.4317 0
M  V30 4 C  18.9815 38.4499 87.4977 0
M  V30 5 C  20.4255 38.3061 87.0256 0
M  V30 6 C  21.0004 37.0273 86.9662 0
M  V30 7 O  20.2321 35.9535 87.3826 0
M  V30 8 C  20.8317 34.6675 87.5143 0
M  V30 9 C  22.3074 36.8917 86.4837 0
M  V30 10 C  23.0519 37.9977 86.0738 0
M  V30 11 C  22.4878 39.2681 86.2084 0
M  V30 12 C  21.1785 39.4417 86.6830 0
M  V30 13 O  20.5805 40.6791 86.8359 0
M  V30 14 C  21.3341 41.8639 86.5824 0
M  V30 15 C  24.4284 37.8207 85.5483 0
M  V30 16 C  25.4395 38.5869 86.0107 0
M  V30 17 N  26.7566 38.5588 85.6282 0
M  V30 18 C  27.7431 39.4364 86.2777 0
M  V30 19 C  27.2034 37.7144 84.6345 0
M  V30 20 O  28.3742 37.6828 84.2483 0
M  V30 21 C  26.1268 36.8085 84.0454 0
M  V30 22 C  24.7839 36.8562 84.4790 0
M  V30 23 C  26.4753 35.9066 83.0326 0
M  V30 24 N  25.5762 35.0830 82.4436 0
M  V30 25 C  24.2846 35.1565 82.8435 0
M  V30 26 C  23.8506 36.0188 83.8476 0
M  V30 27 H  16.2331 37.8230 87.7496 0
M  V30 28 H  17.2839 36.3678 87.9481 0
M  V30 29 H  16.2597 36.5281 86.4935 0
M  V30 30 H  16.9233 39.5325 85.9193 0
M  V30 31 H  18.3907 39.1560 84.9451 0
M  V30 32 H  16.8923 38.1805 84.7296 0
M  V30 33 H  18.6309 39.4744 87.6450 0
M  V30 34 H  18.8727 37.9180 88.4428 0
M  V30 35 H  20.0902 33.9568 87.8819 0
M  V30 36 H  21.2045 34.2930 86.5605 0
M  V30 37 H  21.6551 34.6829 88.2291 0
M  V30 38 H  22.7724 35.9204 86.4275 0
M  V30 39 H  23.0748 40.1224 85.9093 0
M  V30 40 H  20.7386 42.7375 86.8439 0
M  V30 41 H  22.2430 41.9067 87.1861 0
M  V30 42 H  21.6026 41.9491 85.5282 0
M  V30 43 H  25.2787 39.3308 86.7784 0
M  V30 44 H  28.7653 39.3177 85.9133 0
M  V30 45 H  27.4655 40.4801 86.1327 0
M  V30 46 H  27.7587 39.2412 87.3497 0
M  V30 47 H  27.4882 35.8308 82.6614 0
M  V30 48 H  23.5845 34.5062 82.3380 0
M  V30 49 H  22.8020 36.0362 84.1012 0
M  V30 50 H  18.5328 37.0479 86.0703 0
M  V30 END ATOM
M  V30 BEGIN BOND
M  V30 1 1 1 2
M  V30 2 1 1 27
M  V30 3 1 1 28
M  V30 4 1 1 29
M  V30 5 1 2 3
M  V30 6 1 2 4
M  V30 7 1 2 50
M  V30 8 1 3 30
M  V30 9 1 3 31
M  V30 10 1 3 32
M  V30 11 1 4 5
M  V30 12 1 4 33
M  V30 13 1 4 34
M  V30 14 2 5 6
M  V30 15 1 5 12
M  V30 16 1 6 7
M  V30 17 1 6 9
M  V30 18 1 7 8
M  V30 19 1 8 35
M  V30 20 1 8 36
M  V30 21 1 8 37
M  V30 22 2 9 10
M  V30 23 1 9 38
M  V30 24 1 10 11
M  V30 25 1 10 15
M  V30 26 2 11 12
M  V30 27 1 11 39
M  V30 28 1 12 13
M  V30 29 1 13 14
M  V30 30 1 14 40
M  V30 31 1 14 41
M  V30 32 1 14 42
M  V30 33 2 15 16
M  V30 34 1 15 22
M  V30 35 1 16 17
M  V30 36 1 16 43
M  V30 37 1 17 18
M  V30 38 1 17 19
M  V30 39 1 18 44
M  V30 40 1 18 45
M  V30 41 1 18 46
M  V30 42 2 19 20
M  V30 43 1 19 21
M  V30 44 2 21 22
M  V30 45 1 21 23
M  V30 46 1 22 26
M  V30 47 2 23 24
M  V30 48 1 23 47
M  V30 49 1 24 25
M  V30 50 2 25 26
M  V30 51 1 25 48
M  V30 52 1 26 49
M  V30 END BOND
M  V30 END CTAB
M  END
> <s_m_entry_id>
686

> <s_m_entry_name>
result.2859

> <s_m_Source_Path>
D:\OneDrive - zju.edu.cn\DOC\A-Finished\LCK_VS\Planet\LCK-8617

> <s_m_Source_File>
glide-dock_SP_top1262_2_pv.maegz

> <i_m_Source_File_Index>
686

> <PLANET_affinity>
7.448

> <i_lp_mmshare_version>
54117

> <i_f3d_flags>
0

> <s_epik_input>
W0NIM11OKFtDSDNdKVtDSDJdYzFjKE9bQ0gzXSlbY0hdYyhbY0hdYzFPW0NIM10pLWMoW2NIXW4oW0NIM10pYzI9TyljKGMyMylbY0hdW2NIXW5bY0hdMw==

> <s_epik_cmdline>
J2VwaWtfcHl0aG9uJywgJy1waCcsICc3LjAnLCAnLXRuJywgJzgnLCAnLW1hJywgJzUwMCcsICctaW1hZScsICc8aW5maWxlLm1hZT4nLCAnLW9tYWUnLCAnPG91dGZpbGUubWFlPic=

> <r_epik_Ionization_Penalty>
  0.0411

> <r_epik_Ionization_Penalty_Charging>
  0.0404

> <r_epik_Ionization_Penalty_Neutral>
  0.0007

> <r_epik_State_Penalty>
  0.0340

> <r_epik_Charging_Adjusted_Penalty>
0.0743895

> <i_epik_Tot_Q>
1

> <i_epik_Tot_abs_Q>
1

> <s_lp_Force_Field>
S-OPLS

> <r_lp_Energy>
58.4987

> <b_lp_Chiralities_Consistent>
1

> <s_lp_Variant>
CN(C)CC1=C(OC)C=C(C(C2=C3C=NC=C2)=CN(C)C3=O)C=C1OC-1

> <s_i_glide_gridfile>
glide-grid_1

> <i_i_glide_lignum>
2007

> <i_i_glide_rotatable_bonds>
5

> <r_i_docking_score>
-7.79838481419079

> <r_i_glide_ligand_efficiency>
-0.299937877468876

> <r_i_glide_ligand_efficiency_sa>
-0.888564781802988

> <r_i_glide_ligand_efficiency_ln>
-1.83142508502503

> <r_i_glide_gscore>
-7.83238481419079

> <r_i_glide_lipo>
-3.17261482585194

> <r_i_glide_hbond>
-0.32

> <r_i_glide_metal>
0

> <r_i_glide_rewards>
-2.04964088560398

> <r_i_glide_evdw>
-40.7523345947266

> <r_i_glide_ecoul>
-3.71167254447937

> <r_i_glide_erotb>
0.304238508673359

> <r_i_glide_esite>
0

> <r_i_glide_emodel>
-67.1779955061429

> <r_i_glide_energy>
-44.4640071392059

> <r_i_glide_einternal>
2.38164067268372

> <i_i_glide_confnum>
4

> <i_i_glide_posenum>
147

> <r_i_glide_eff_state_penalty>
0.034

> <r_lp_tautomer_probability>
1

> <s_m_subgroup_title>
glide-dock_SP_top1262_2_pv

> <s_m_subgroupid>
glide-dock_SP_top1262_2_pv

> <b_m_subgroup_collapsed>
0

$$$$
O=C(NCC1=CC=CN=C1)C2=CC=C(N(CC3=CC4=C(N=C(C)NC4=O)C=C3Br)CC#C)C=C2
                    3D
 Schrodinger Suite 2021-3.
  0  0  0     0  0            999 V3000
M  V30 BEGIN CTAB
M  V30 COUNTS 56 59 0 0 0
M  V30 BEGIN ATOM
M  V30 1 C  24.0225 48.1671 87.2942 0
M  V30 2 N  23.4433 49.2506 87.8740 0
M  V30 3 C  22.0881 49.2789 87.9458 0
M  V30 4 C  21.2830 48.2555 87.4474 0
M  V30 5 C  21.8958 47.1568 86.8459 0
M  V30 6 C  23.2927 47.0982 86.7598 0
M  V30 7 C  24.0240 45.9137 86.1310 0
M  V30 8 N  23.2834 44.6523 86.0436 0
M  V30 9 C  23.1356 43.7606 87.0379 0
M  V30 10 O  23.5044 43.9965 88.1907 0
M  V30 11 C  22.5832 42.3980 86.6657 0
M  V30 12 C  22.2915 41.4790 87.6801 0
M  V30 13 C  21.9563 40.1654 87.3711 0
M  V30 14 C  21.9104 39.7302 86.0427 0
M  V30 15 C  22.0889 40.6743 85.0224 0
M  V30 16 C  22.4323 41.9913 85.3288 0
M  V30 17 N  21.7269 38.3484 85.7738 0
M  V30 18 C  21.1109 37.8891 84.5203 0
M  V30 19 C  19.6638 38.1689 84.4447 0
M  V30 20 C  18.4573 38.3564 84.4062 0
M  V30 21 C  22.6747 37.4323 86.4337 0
M  V30 22 C  24.0587 37.4089 85.7674 0
M  V30 23 C  24.2552 36.5761 84.6576 0
M  V30 24 C  25.1545 38.1364 86.2790 0
M  V30 25 Br 25.0425 39.1743 87.8737 0
M  V30 26 C  26.4019 38.0698 85.6549 0
M  V30 27 C  26.5909 37.2447 84.5548 0
M  V30 28 C  25.5202 36.4916 84.0687 0
M  V30 29 N  27.8771 37.1585 83.9947 0
M  V30 30 C  28.0875 36.3566 83.0164 0
M  V30 31 C  29.4734 36.1712 82.4436 0
M  V30 32 N  27.0741 35.6089 82.4911 0
M  V30 33 C  25.7940 35.5435 82.9289 0
M  V30 34 O  24.9905 34.7566 82.4432 0
M  V30 35 H  25.1022 48.1701 87.2625 0
M  V30 36 H  21.6440 50.1412 88.4202 0
M  V30 37 H  20.2054 48.3052 87.5243 0
M  V30 38 H  21.2834 46.3570 86.4520 0
M  V30 39 H  24.9648 45.7490 86.6609 0
M  V30 40 H  24.2881 46.2007 85.1134 0
M  V30 41 H  22.7053 44.5488 85.2174 0
M  V30 42 H  22.3775 41.7615 88.7201 0
M  V30 43 H  21.7795 39.4719 88.1782 0
M  V30 44 H  22.0398 40.3881 83.9840 0
M  V30 45 H  22.6299 42.6692 84.5101 0
M  V30 46 H  21.6011 38.3094 83.6442 0
M  V30 47 H  21.2107 36.8077 84.4255 0
M  V30 48 H  17.3998 38.5024 84.3994 0
M  V30 49 H  22.2622 36.4220 86.4169 0
M  V30 50 H  22.7790 37.6652 87.4922 0
M  V30 51 H  23.4370 35.9786 84.2764 0
M  V30 52 H  27.2382 38.6266 86.0489 0
M  V30 53 H  29.8638 35.1851 82.6955 0
M  V30 54 H  29.4662 36.2579 81.3574 0
M  V30 55 H  30.1727 36.9130 82.8303 0
M  V30 56 H  27.2828 35.0300 81.6907 0
M  V30 END ATOM
M  V30 BEGIN BOND
M  V30 1 2 1 2
M  V30 2 1 1 6
M  V30 3 1 1 35
M  V30 4 1 2 3
M  V30 5 2 3 4
M  V30 6 1 3 36
M  V30 7 1 4 5
M  V30 8 1 4 37
M  V30 9 2 5 6
M  V30 10 1 5 38
M  V30 11 1 6 7
M  V30 12 1 7 8
M  V30 13 1 7 39
M  V30 14 1 7 40
M  V30 15 1 8 9
M  V30 16 1 8 41
M  V30 17 2 9 10
M  V30 18 1 9 11
M  V30 19 2 11 12
M  V30 20 1 11 16
M  V30 21 1 12 13
M  V30 22 1 12 42
M  V30 23 2 13 14
M  V30 24 1 13 43
M  V30 25 1 14 15
M  V30 26 1 14 17
M  V30 27 2 15 16
M  V30 28 1 15 44
M  V30 29 1 16 45
M  V30 30 1 17 18
M  V30 31 1 17 21
M  V30 32 1 18 19
M  V30 33 1 18 46
M  V30 34 1 18 47
M  V30 35 3 19 20
M  V30 36 1 20 48
M  V30 37 1 21 22
M  V30 38 1 21 49
M  V30 39 1 21 50
M  V30 40 2 22 23
M  V30 41 1 22 24
M  V30 42 1 23 28
M  V30 43 1 23 51
M  V30 44 1 24 25
M  V30 45 2 24 26
M  V30 46 1 26 27
M  V30 47 1 26 52
M  V30 48 2 27 28
M  V30 49 1 27 29
M  V30 50 1 28 33
M  V30 51 2 29 30
M  V30 52 1 30 31
M  V30 53 1 30 32
M  V30 54 1 31 53
M  V30 55 1 31 54
M  V30 56 1 31 55
M  V30 57 1 32 33
M  V30 58 1 32 56
M  V30 59 2 33 34
M  V30 END BOND
M  V30 END CTAB
M  END
> <s_m_entry_id>
688

> <s_m_entry_name>
result.44

> <s_m_Source_Path>
D:\OneDrive - zju.edu.cn\DOC\A-Finished\LCK_VS\Planet\LCK-8617

> <s_m_Source_File>
glide-dock_SP_top1262_2_pv.maegz

> <i_m_Source_File_Index>
688

> <PLANET_affinity>
7.612

> <i_lp_mmshare_version>
54117

> <i_f3d_flags>
0

> <s_epik_input>
W2NIXTFbY0hdW2NIXW5bY0hdYzFbQ0gyXVtOSF1DKD1PKWMyW2NIXVtjSF1jKFtjSF1bY0hdMilOKFtDSDJdQyNbQ0hdKVtDSDJdYyhjKEJyKVtjSF0zKVtjSF1jKGMzNCljKD1PKVtuSF1jKG40KVtDSDNd

> <s_epik_cmdline>
J2VwaWtfcHl0aG9uJywgJy1waCcsICc3LjAnLCAnLXRuJywgJzgnLCAnLW1hJywgJzUwMCcsICctaW1hZScsICc8aW5maWxlLm1hZT4nLCAnLW9tYWUnLCAnPG91dGZpbGUubWFlPic=

> <r_epik_Ionization_Penalty>
  0.0099

> <r_epik_Ionization_Penalty_Charging>
  0.0027

> <r_epik_Ionization_Penalty_Neutral>
  0.0072

> <r_epik_State_Penalty>
  0.0691

> <r_epik_Charging_Adjusted_Penalty>
0.0717882

> <i_epik_Tot_Q>
0

> <i_epik_Tot_abs_Q>
0

> <s_lp_Force_Field>
S-OPLS

> <r_lp_Energy>
41.2711

> <b_lp_Chiralities_Consistent>
1

> <s_lp_Variant>
O=C(NCC1=CC=CN=C1)C2=CC=C(N(CC3=CC4=C(N=C(C)NC4=O)C=C3Br)CC#C)C=C2-1

> <s_i_glide_gridfile>
glide-grid_1

> <i_i_glide_lignum>
1784

> <i_i_glide_rotatable_bonds>
9

> <r_i_docking_score>
-7.79621036518763

> <r_i_glide_ligand_efficiency>
-0.22930030485846

> <r_i_glide_ligand_efficiency_sa>
-0.742843972782812

> <r_i_glide_ligand_efficiency_ln>
-1.72240154596363

> <r_i_glide_gscore>
-7.86531036518763

> <r_i_glide_lipo>
-2.74694054478431

> <r_i_glide_hbond>
-0.772198287860529

> <r_i_glide_metal>
0

> <r_i_glide_rewards>
-0.747089601452477

> <r_i_glide_evdw>
-47.3034515380859

> <r_i_glide_ecoul>
-10.4467868804932

> <r_i_glide_erotb>
0.431044363989871

> <r_i_glide_esite>
-0.0979356861019106

> <r_i_glide_emodel>
-79.9263960945137

> <r_i_glide_energy>
-57.7502384185791

> <r_i_glide_einternal>
7.87926387786865

> <i_i_glide_confnum>
74

> <i_i_glide_posenum>
76

> <r_i_glide_eff_state_penalty>
0.0691

> <r_lp_tautomer_probability>
0.883938

> <s_m_subgroup_title>
glide-dock_SP_top1262_2_pv

> <s_m_subgroupid>
glide-dock_SP_top1262_2_pv

> <b_m_subgroup_collapsed>
0

$$$$
O=C1N(C2=CC=C(F)C=C2)NC3=C4C(N(C)N=C4)=NC(C5=CC=CC(C(F)(F)F)=C5)=C31
                    3D
 Schrodinger Suite 2021-3.
  0  0  0     0  0            999 V3000
M  V30 BEGIN CTAB
M  V30 COUNTS 43 47 0 0 0
M  V30 BEGIN ATOM
M  V30 1 C  19.1973 37.9344 85.7460 0
M  V30 2 C  17.8685 37.9403 86.1613 0
M  V30 3 C  17.4849 37.1625 87.2513 0
M  V30 4 F  16.1938 37.1589 87.6430 0
M  V30 5 C  18.4133 36.3834 87.9388 0
M  V30 6 C  19.7402 36.3678 87.5241 0
M  V30 7 C  20.1270 37.1460 86.4304 0
M  V30 8 N  21.4626 37.1487 86.0278 0
M  V30 9 N  21.8416 36.3575 84.9510 0 CHG=-1
M  V30 10 C  22.4407 37.8660 86.6269 0
M  V30 11 O  22.3513 38.5874 87.6214 0
M  V30 12 C  23.6265 37.5335 85.7845 0
M  V30 13 C  24.9754 37.9399 85.8277 0
M  V30 14 N  25.9121 37.4130 84.9825 0
M  V30 15 C  25.4586 36.5097 84.1022 0
M  V30 16 C  24.1159 36.0837 83.9709 0
M  V30 17 C  23.1685 36.6204 84.8553 0
M  V30 18 N  26.1692 35.7861 83.1598 0
M  V30 19 C  27.5874 35.8167 82.8441 0
M  V30 20 N  25.3591 34.9811 82.4434 0
M  V30 21 C  24.1398 35.1566 82.8871 0
M  V30 22 C  25.5084 38.9622 86.7803 0
M  V30 23 C  26.7203 38.7564 87.4535 0
M  V30 24 C  27.2234 39.7077 88.3372 0
M  V30 25 C  26.5206 40.8875 88.5677 0
M  V30 26 C  25.3128 41.1270 87.9042 0
M  V30 27 C  24.5245 42.4131 88.1474 0
M  V30 28 F  24.8603 42.9891 89.3053 0
M  V30 29 F  24.7812 43.2740 87.1614 0
M  V30 30 F  23.2130 42.1688 88.1738 0
M  V30 31 C  24.8263 40.1654 87.0093 0
M  V30 32 H  19.5062 38.5386 84.9070 0
M  V30 33 H  17.1359 38.5465 85.6497 0
M  V30 34 H  18.0999 35.7905 88.7855 0
M  V30 35 H  20.4668 35.7600 88.0434 0
M  V30 36 H  28.1368 36.3246 83.6377 0
M  V30 37 H  27.9655 34.7980 82.7396 0
M  V30 38 H  27.7364 36.3569 81.9087 0
M  V30 39 H  23.3044 34.6162 82.4633 0
M  V30 40 H  27.2803 37.8488 87.2845 0
M  V30 41 H  28.1629 39.5321 88.8410 0
M  V30 42 H  26.9241 41.6162 89.2568 0
M  V30 43 H  23.8998 40.3525 86.4845 0
M  V30 END ATOM
M  V30 BEGIN BOND
M  V30 1 2 1 2
M  V30 2 1 1 7
M  V30 3 1 1 32
M  V30 4 1 2 3
M  V30 5 1 2 33
M  V30 6 1 3 4
M  V30 7 2 3 5
M  V30 8 1 5 6
M  V30 9 1 5 34
M  V30 10 2 6 7
M  V30 11 1 6 35
M  V30 12 1 7 8
M  V30 13 1 8 9
M  V30 14 1 8 10
M  V30 15 1 9 17
M  V30 16 2 10 11
M  V30 17 1 10 12
M  V30 18 2 12 13
M  V30 19 1 12 17
M  V30 20 1 13 14
M  V30 21 1 13 22
M  V30 22 2 14 15
M  V30 23 1 15 16
M  V30 24 1 15 18
M  V30 25 2 16 17
M  V30 26 1 16 21
M  V30 27 1 18 19
M  V30 28 1 18 20
M  V30 29 1 19 36
M  V30 30 1 19 37
M  V30 31 1 19 38
M  V30 32 2 20 21
M  V30 33 1 21 39
M  V30 34 2 22 23
M  V30 35 1 22 31
M  V30 36 1 23 24
M  V30 37 1 23 40
M  V30 38 2 24 25
M  V30 39 1 24 41
M  V30 40 1 25 26
M  V30 41 1 25 42
M  V30 42 1 26 27
M  V30 43 2 26 31
M  V30 44 1 27 28
M  V30 45 1 27 29
M  V30 46 1 27 30
M  V30 47 1 31 43
M  V30 END BOND
M  V30 END CTAB
M  END
> <s_m_entry_id>
689

> <s_m_entry_name>
result.1744

> <s_m_Source_Path>
D:\OneDrive - zju.edu.cn\DOC\A-Finished\LCK_VS\Planet\LCK-8617

> <s_m_Source_File>
glide-dock_SP_top1262_2_pv.maegz

> <i_m_Source_File_Index>
689

> <PLANET_affinity>
7.313

> <i_lp_mmshare_version>
54117

> <i_f3d_flags>
0

> <s_epik_input>
RmMxW2NIXVtjSF1jKFtjSF1bY0hdMSktbihjMj1PKVtuSF1jKGMyMyljNGMobihbQ0gzXSluW2NIXTQpbmMzLWM1W2NIXVtjSF1bY0hdYyhDKEYpKEYpRilbY0hdNQ==

> <s_epik_cmdline>
J2VwaWtfcHl0aG9uJywgJy1waCcsICc3LjAnLCAnLXRuJywgJzgnLCAnLW1hJywgJzUwMCcsICctaW1hZScsICc8aW5maWxlLm1hZT4nLCAnLW9tYWUnLCAnPG91dGZpbGUubWFlPic=

> <r_epik_Ionization_Penalty>
  0.0070

> <r_epik_Ionization_Penalty_Charging>
  0.0000

> <r_epik_Ionization_Penalty_Neutral>
  0.0070

> <r_epik_State_Penalty>
  0.0052

> <r_epik_Charging_Adjusted_Penalty>
0.00520627

> <i_epik_Tot_Q>
-1

> <i_epik_Tot_abs_Q>
1

> <s_lp_Force_Field>
S-OPLS

> <r_lp_Energy>
48.8962

> <b_lp_Chiralities_Consistent>
1

> <s_lp_Variant>
O=C1N(C2=CC=C(F)C=C2)NC3=C4C(N(C)N=C4)=NC(C5=CC=CC(C(F)(F)F)=C5)=C31-1

> <s_i_glide_gridfile>
glide-grid_1

> <i_i_glide_lignum>
2233

> <i_i_glide_rotatable_bonds>
3

> <r_i_docking_score>
-7.79620156465197

> <r_i_glide_ligand_efficiency>
-0.251490373053289

> <r_i_glide_ligand_efficiency_sa>
-0.790026991267983

> <r_i_glide_ligand_efficiency_ln>
-1.75828237771318

> <r_i_glide_gscore>
-7.80140156465197

> <r_i_glide_lipo>
-2.9871270276929

> <r_i_glide_hbond>
-0.32

> <r_i_glide_metal>
0

> <r_i_glide_rewards>
-2.41098121672539

> <r_i_glide_evdw>
-41.4947395324707

> <r_i_glide_ecoul>
-1.44960808753967

> <r_i_glide_erotb>
0.218354251984595

> <r_i_glide_esite>
-0.00946938246379167

> <r_i_glide_emodel>
-60.086187588613

> <r_i_glide_energy>
-42.9443476200104

> <r_i_glide_einternal>
4.86830186843872

> <i_i_glide_confnum>
4

> <i_i_glide_posenum>
211

> <r_i_glide_eff_state_penalty>
0.0052

> <s_m_subgroup_title>
glide-dock_SP_top1262_2_pv

> <s_m_subgroupid>
glide-dock_SP_top1262_2_pv

> <b_m_subgroup_collapsed>
0

$$$$
O=C(C1=NC(C2=CC=C(S(=O)(N3CCN(C)CC3)=O)C=C2)=CN=C1N)NC4=CC=CN=C4
                    3D
 Schrodinger Suite 2021-3.
  0  0  0     0  0            999 V3000
M  V30 BEGIN CTAB
M  V30 COUNTS 55 58 0 0 0
M  V30 BEGIN ATOM
M  V30 1 C  20.6423 38.1996 86.4718 0
M  V30 2 N  19.4642 38.6115 87.0063 0
M  V30 3 C  18.7000 37.6882 87.6432 0
M  V30 4 C  19.0905 36.3565 87.7906 0
M  V30 5 C  20.3073 35.9470 87.2390 0
M  V30 6 C  21.1048 36.8733 86.5561 0
M  V30 7 N  22.2676 36.4071 85.9123 0
M  V30 8 C  23.3199 37.1353 85.4785 0
M  V30 9 O  23.5839 38.2674 85.8878 0
M  V30 10 C  24.1932 36.4892 84.4218 0
M  V30 11 N  25.5118 36.8294 84.4551 0
M  V30 12 C  26.3523 36.3511 83.4913 0
M  V30 13 C  25.8472 35.5210 82.4874 0
M  V30 14 N  24.5455 35.1564 82.4441 0
M  V30 15 C  23.7137 35.6447 83.3955 0
M  V30 16 N  22.3772 35.2821 83.2426 0
M  V30 17 C  27.7909 36.7568 83.5528 0
M  V30 18 C  28.2023 37.8541 84.3237 0
M  V30 19 C  29.5417 38.2262 84.3815 0
M  V30 20 C  30.4892 37.5092 83.6524 0
M  V30 21 C  30.1071 36.4137 82.8841 0
M  V30 22 C  28.7692 36.0386 82.8435 0
M  V30 23 S  32.1862 38.0629 83.6629 0
M  V30 24 O  32.4831 38.4977 85.0334 0
M  V30 25 O  32.9960 37.0318 83.0027 0
M  V30 26 N  32.1376 39.4814 82.6127 0
M  V30 27 C  32.0833 39.3458 81.1431 0
M  V30 28 C  33.4600 39.6803 80.5330 0
M  V30 29 N  33.8480 41.0322 80.9768 0
M  V30 30 C  35.0698 41.4637 80.3170 0
M  V30 31 C  33.9763 41.1160 82.4456 0
M  V30 32 C  32.5978 40.8084 83.0689 0
M  V30 33 H  21.1908 38.9611 85.9392 0
M  V30 34 H  17.7606 38.0430 88.0472 0
M  V30 35 H  18.4603 35.6503 88.3144 0
M  V30 36 H  20.6086 34.9137 87.3243 0
M  V30 37 H  22.2768 35.4263 85.6793 0
M  V30 38 H  26.4638 35.1411 81.6875 0
M  V30 39 H  21.6832 35.7017 83.8396 0
M  V30 40 H  22.1172 34.6165 82.5176 0
M  V30 41 H  27.4857 38.4357 84.8856 0
M  V30 42 H  29.8351 39.0826 84.9732 0
M  V30 43 H  30.8361 35.8531 82.3143 0
M  V30 44 H  28.5170 35.1753 82.2476 0
M  V30 45 H  31.8012 38.3192 80.8999 0
M  V30 46 H  31.3047 40.0012 80.7486 0
M  V30 47 H  34.2125 39.0010 80.9384 0
M  V30 48 H  33.4431 39.5908 79.4459 0
M  V30 49 H  35.3542 42.4702 80.6311 0
M  V30 50 H  35.9069 40.7893 80.5138 0
M  V30 51 H  34.8900 41.4991 79.2432 0
M  V30 52 H  34.3500 42.0898 82.7688 0
M  V30 53 H  34.6918 40.3428 82.7351 0
M  V30 54 H  31.8565 41.5551 82.7921 0
M  V30 55 H  32.6621 40.8086 84.1562 0
M  V30 END ATOM
M  V30 BEGIN BOND
M  V30 1 2 1 2
M  V30 2 1 1 6
M  V30 3 1 1 33
M  V30 4 1 2 3
M  V30 5 2 3 4
M  V30 6 1 3 34
M  V30 7 1 4 5
M  V30 8 1 4 35
M  V30 9 2 5 6
M  V30 10 1 5 36
M  V30 11 1 6 7
M  V30 12 1 7 8
M  V30 13 1 7 37
M  V30 14 2 8 9
M  V30 15 1 8 10
M  V30 16 2 10 11
M  V30 17 1 10 15
M  V30 18 1 11 12
M  V30 19 2 12 13
M  V30 20 1 12 17
M  V30 21 1 13 14
M  V30 22 1 13 38
M  V30 23 2 14 15
M  V30 24 1 15 16
M  V30 25 1 16 39
M  V30 26 1 16 40
M  V30 27 2 17 18
M  V30 28 1 17 22
M  V30 29 1 18 19
M  V30 30 1 18 41
M  V30 31 2 19 20
M  V30 32 1 19 42
M  V30 33 1 20 21
M  V30 34 1 20 23
M  V30 35 2 21 22
M  V30 36 1 21 43
M  V30 37 1 22 44
M  V30 38 2 23 24
M  V30 39 2 23 25
M  V30 40 1 23 26
M  V30 41 1 26 27
M  V30 42 1 26 32
M  V30 43 1 27 28
M  V30 44 1 27 45
M  V30 45 1 27 46
M  V30 46 1 28 29
M  V30 47 1 28 47
M  V30 48 1 28 48
M  V30 49 1 29 30
M  V30 50 1 29 31
M  V30 51 1 30 49
M  V30 52 1 30 50
M  V30 53 1 30 51
M  V30 54 1 31 32
M  V30 55 1 31 52
M  V30 56 1 31 53
M  V30 57 1 32 54
M  V30 58 1 32 55
M  V30 END BOND
M  V30 END CTAB
M  END
> <s_m_entry_id>
693

> <s_m_entry_name>
result.7833

> <s_m_Source_Path>
D:\OneDrive - zju.edu.cn\DOC\A-Finished\LCK_VS\Planet\LCK-8617

> <s_m_Source_File>
glide-dock_SP_top1262_2_pv.maegz

> <i_m_Source_File_Index>
693

> <PLANET_affinity>
7.307

> <i_lp_mmshare_version>
54117

> <i_f3d_flags>
0

> <s_epik_input>
W2NIXTFbY0hdW2NIXW5bY0hdYzFbTkhdQyg9TyljMm5jKFtjSF1uYzJbTkgyXSktYzNbY0hdW2NIXWMoW2NIXVtjSF0zKVMoPU8pKD1PKU40W0NIMl1bQ0gyXU4oW0NIM10pW0NIMl1bQ0gyXTQ=

> <s_epik_cmdline>
J2VwaWtfcHl0aG9uJywgJy1waCcsICc3LjAnLCAnLXRuJywgJzgnLCAnLW1hJywgJzUwMCcsICctaW1hZScsICc8aW5maWxlLm1hZT4nLCAnLW9tYWUnLCAnPG91dGZpbGUubWFlPic=

> <r_epik_Ionization_Penalty>
  0.1856

> <r_epik_Ionization_Penalty_Charging>
  0.0000

> <r_epik_Ionization_Penalty_Neutral>
  0.1856

> <r_epik_State_Penalty>
  0.1740

> <r_epik_Charging_Adjusted_Penalty>
0.173983

> <i_epik_Tot_Q>
0

> <i_epik_Tot_abs_Q>
0

> <s_lp_Force_Field>
S-OPLS

> <r_lp_Energy>
54.5123

> <b_lp_Chiralities_Consistent>
1

> <s_lp_Variant>
O=C(C1=NC(C2=CC=C(S(=O)(N3CCN(C)CC3)=O)C=C2)=CN=C1N)NC4=CC=CN=C4-1

> <s_i_glide_gridfile>
glide-grid_1

> <i_i_glide_lignum>
2246

> <i_i_glide_rotatable_bonds>
6

> <r_i_docking_score>
-7.79031942892635

> <r_i_glide_ligand_efficiency>
-0.243447482153948

> <r_i_glide_ligand_efficiency_sa>
-0.772897577647488

> <r_i_glide_ligand_efficiency_ln>
-1.74446487622394

> <r_i_glide_gscore>
-7.96431942892635

> <r_i_glide_lipo>
-3.48240951655023

> <r_i_glide_hbond>
-0.504611802895324

> <r_i_glide_metal>
0

> <r_i_glide_rewards>
-1.31421450108598

> <r_i_glide_evdw>
-46.6229705810547

> <r_i_glide_ecoul>
-4.94563293457031

> <r_i_glide_erotb>
0.409909860843464

> <r_i_glide_esite>
0

> <r_i_glide_emodel>
-69.6201765147419

> <r_i_glide_energy>
-51.568603515625

> <r_i_glide_einternal>
10.6728210449219

> <i_i_glide_confnum>
105

> <i_i_glide_posenum>
322

> <r_i_glide_eff_state_penalty>
0.174

> <r_lp_tautomer_probability>
1

> <s_m_subgroup_title>
glide-dock_SP_top1262_2_pv

> <s_m_subgroupid>
glide-dock_SP_top1262_2_pv

> <b_m_subgroup_collapsed>
0

$$$$
O=C(NC)C1=CC=C(C2=NN3C(N=C2)=NC=C3CC4=CC=C5N=CC=CC5=C4)C=C1F
                    3D
 Schrodinger Suite 2021-3.
  0  0  0     0  0            999 V3000
M  V30 BEGIN CTAB
M  V30 COUNTS 48 52 0 0 0
M  V30 BEGIN ATOM
M  V30 1 C  33.4308 40.9393 87.4798 0
M  V30 2 N  32.3429 40.2090 86.8436 0
M  V30 3 C  32.2819 39.9572 85.5259 0
M  V30 4 O  33.1566 40.2930 84.7298 0
M  V30 5 C  31.0581 39.2080 85.0694 0
M  V30 6 C  29.7855 39.5785 85.5259 0
M  V30 7 C  28.6540 38.8799 85.1131 0
M  V30 8 C  28.7451 37.7760 84.2434 0
M  V30 9 C  30.0292 37.4142 83.8009 0
M  V30 10 C  31.1682 38.1120 84.2011 0
M  V30 11 F  32.3712 37.6949 83.7399 0
M  V30 12 C  27.5222 37.0078 83.8208 0
M  V30 13 N  26.3485 37.3271 84.4451 0
M  V30 14 C  27.5502 35.9947 82.8432 0
M  V30 15 N  26.4476 35.3060 82.4436 0
M  V30 16 C  25.2959 35.6464 83.0255 0
M  V30 17 N  25.2746 36.6346 84.0195 0
M  V30 18 N  24.0581 35.1558 82.7801 0
M  V30 19 C  23.2899 35.7864 83.6431 0
M  V30 20 C  23.9694 36.7143 84.4437 0
M  V30 21 C  23.5188 37.6541 85.5453 0
M  V30 22 C  22.1305 37.3232 86.0692 0
M  V30 23 C  21.9389 36.1993 86.8758 0
M  V30 24 C  20.6838 35.8964 87.3985 0
M  V30 25 C  21.0477 38.1344 85.7321 0
M  V30 26 C  19.7550 37.8366 86.2251 0
M  V30 27 C  19.5756 36.7219 87.1019 0
M  V30 28 C  18.6166 38.6018 85.8758 0
M  V30 29 C  17.3754 38.2353 86.3848 0
M  V30 30 C  17.2941 37.1590 87.2652 0
M  V30 31 N  18.3618 36.4141 87.6434 0
M  V30 32 H  33.1537 41.2152 88.4972 0
M  V30 33 H  33.6700 41.8548 86.9295 0
M  V30 34 H  34.3278 40.3168 87.5221 0
M  V30 35 H  31.6485 39.7940 87.4522 0
M  V30 36 H  29.6619 40.4220 86.1932 0
M  V30 37 H  27.6946 39.2076 85.4911 0
M  V30 38 H  30.1826 36.5706 83.1436 0
M  V30 39 H  28.4515 35.7152 82.3201 0
M  V30 40 H  22.2307 35.5791 83.6853 0
M  V30 41 H  24.2070 37.6101 86.3922 0
M  V30 42 H  23.5488 38.6888 85.2014 0
M  V30 43 H  22.7721 35.5570 87.1147 0
M  V30 44 H  20.5495 35.0302 88.0328 0
M  V30 45 H  21.1826 38.9888 85.0826 0
M  V30 46 H  18.7132 39.4516 85.2165 0
M  V30 47 H  16.4864 38.7930 86.1298 0
M  V30 48 H  16.3373 36.8773 87.6751 0
M  V30 END ATOM
M  V30 BEGIN BOND
M  V30 1 1 1 2
M  V30 2 1 1 32
M  V30 3 1 1 33
M  V30 4 1 1 34
M  V30 5 1 2 3
M  V30 6 1 2 35
M  V30 7 2 3 4
M  V30 8 1 3 5
M  V30 9 2 5 6
M  V30 10 1 5 10
M  V30 11 1 6 7
M  V30 12 1 6 36
M  V30 13 2 7 8
M  V30 14 1 7 37
M  V30 15 1 8 9
M  V30 16 1 8 12
M  V30 17 2 9 10
M  V30 18 1 9 38
M  V30 19 1 10 11
M  V30 20 2 12 13
M  V30 21 1 12 14
M  V30 22 1 13 17
M  V30 23 2 14 15
M  V30 24 1 14 39
M  V30 25 1 15 16
M  V30 26 1 16 17
M  V30 27 2 16 18
M  V30 28 1 17 20
M  V30 29 1 18 19
M  V30 30 2 19 20
M  V30 31 1 19 40
M  V30 32 1 20 21
M  V30 33 1 21 22
M  V30 34 1 21 41
M  V30 35 1 21 42
M  V30 36 2 22 23
M  V30 37 1 22 25
M  V30 38 1 23 24
M  V30 39 1 23 43
M  V30 40 2 24 27
M  V30 41 1 24 44
M  V30 42 2 25 26
M  V30 43 1 25 45
M  V30 44 1 26 27
M  V30 45 1 26 28
M  V30 46 1 27 31
M  V30 47 2 28 29
M  V30 48 1 28 46
M  V30 49 1 29 30
M  V30 50 1 29 47
M  V30 51 2 30 31
M  V30 52 1 30 48
M  V30 END BOND
M  V30 END CTAB
M  END
> <s_m_entry_id>
697

> <s_m_entry_name>
result.2027

> <s_m_Source_Path>
D:\OneDrive - zju.edu.cn\DOC\A-Finished\LCK_VS\Planet\LCK-8617

> <s_m_Source_File>
glide-dock_SP_top1262_2_pv.maegz

> <i_m_Source_File_Index>
697

> <PLANET_affinity>
7.023

> <i_lp_mmshare_version>
54117

> <i_f3d_flags>
0

> <s_epik_input>
W0NIM11bTkhdQyg9TyljMVtjSF1bY0hdYyhbY0hdYzFGKS1jKFtjSF1uMilubihjMjMpYyhbY0hdbjMpW0NIMl1jKFtjSF00KVtjSF1bY0hdYyhjNDUpbltjSF1bY0hdW2NIXTU=

> <s_epik_cmdline>
J2VwaWtfcHl0aG9uJywgJy1waCcsICc3LjAnLCAnLXRuJywgJzgnLCAnLW1hJywgJzUwMCcsICctaW1hZScsICc8aW5maWxlLm1hZT4nLCAnLW9tYWUnLCAnPG91dGZpbGUubWFlPic=

> <r_epik_Ionization_Penalty>
  0.0075

> <r_epik_Ionization_Penalty_Charging>
  0.0000

> <r_epik_Ionization_Penalty_Neutral>
  0.0075

> <r_epik_State_Penalty>
  0.0056

> <r_epik_Charging_Adjusted_Penalty>
0.00560247

> <i_epik_Tot_Q>
0

> <i_epik_Tot_abs_Q>
0

> <s_lp_Force_Field>
S-OPLS

> <r_lp_Energy>
52.168

> <b_lp_Chiralities_Consistent>
1

> <s_lp_Variant>
O=C(NC)C1=CC=C(C2=NN3C(N=C2)=NC=C3CC4=CC=C5N=CC=CC5=C4)C=C1F-1

> <s_i_glide_gridfile>
glide-grid_1

> <i_i_glide_lignum>
2683

> <i_i_glide_rotatable_bonds>
5

> <r_i_docking_score>
-7.78843001849293

> <r_i_glide_ligand_efficiency>
-0.251239678015901

> <r_i_glide_ligand_efficiency_sa>
-0.789239462728781

> <r_i_glide_ligand_efficiency_ln>
-1.75652965588503

> <r_i_glide_gscore>
-7.79403001849293

> <r_i_glide_lipo>
-3.02980415168144

> <r_i_glide_hbond>
-0.343951533521756

> <r_i_glide_metal>
0

> <r_i_glide_rewards>
-2.15110439634211

> <r_i_glide_evdw>
-44.8476142883301

> <r_i_glide_ecoul>
-3.19152021408081

> <r_i_glide_erotb>
0.463726621508242

> <r_i_glide_esite>
-0.0117878119272379

> <r_i_glide_emodel>
-69.8460214849917

> <r_i_glide_energy>
-48.0391345024109

> <r_i_glide_einternal>
1.41696548461914

> <i_i_glide_confnum>
107

> <i_i_glide_posenum>
204

> <r_i_glide_eff_state_penalty>
0.0056

> <s_m_subgroup_title>
glide-dock_SP_top1262_2_pv

> <s_m_subgroupid>
glide-dock_SP_top1262_2_pv

> <b_m_subgroup_collapsed>
0

$$$$
O=C(N[C@@H]1CNCCC1)C2=C(C=C(S2)C3=CC=CC(F)=C3)NC(N)=O
                    3D
 Schrodinger Suite 2021-3.
  0  0  0     0  0            999 V3000
M  V30 BEGIN CTAB
M  V30 COUNTS 45 47 0 0 0
M  V30 BEGIN ATOM
M  V30 1 C  33.7335 35.5772 81.6541 0
M  V30 2 C  35.0526 34.7849 81.5388 0
M  V30 3 C  35.6061 34.3338 82.9060 0
M  V30 4 N  34.5384 33.5022 83.6436 0 CHG=1
M  V30 5 C  33.2261 34.2893 83.8410 0
M  V30 6 C  32.6746 34.8234 82.4910 0 CFG=1
M  V30 7 N  31.3707 35.4765 82.6000 0
M  V30 8 C  31.0991 36.6273 83.2450 0
M  V30 9 O  31.9741 37.3263 83.7556 0
M  V30 10 C  29.6891 36.9650 83.3798 0
M  V30 11 C  29.1136 38.1084 83.9565 0
M  V30 12 N  29.8245 39.1678 84.4747 0
M  V30 13 C  29.9028 40.3472 83.8427 0
M  V30 14 O  29.2665 40.6830 82.8440 0
M  V30 15 N  30.7688 41.1567 84.4305 0
M  V30 16 C  27.7140 38.0354 84.0461 0
M  V30 17 C  27.1690 36.8803 83.5002 0
M  V30 18 S  28.4293 35.8804 82.8435 0
M  V30 19 C  25.7483 36.4205 83.4685 0
M  V30 20 C  25.2726 35.5898 82.4465 0
M  V30 21 C  23.9470 35.1590 82.4435 0
M  V30 22 C  23.0794 35.5567 83.4569 0
M  V30 23 C  23.5401 36.3824 84.4797 0
M  V30 24 F  22.7025 36.7618 85.4702 0
M  V30 25 C  24.8665 36.8153 84.4830 0
M  V30 26 H  33.9489 36.5393 82.1219 0
M  V30 27 H  33.3381 35.7905 80.6590 0
M  V30 28 H  35.7993 35.3958 81.0294 0
M  V30 29 H  34.9007 33.9137 80.8976 0
M  V30 30 H  35.8450 35.1752 83.5603 0
M  V30 31 H  36.4867 33.6963 82.8115 0
M  V30 32 H  34.8835 33.2267 84.5633 0
M  V30 33 H  32.5316 33.6061 84.3344 0
M  V30 34 H  33.4660 35.0964 84.5367 0
M  V30 35 H  32.4391 33.9324 81.9047 0
M  V30 36 H  30.6132 35.0405 82.0923 0
M  V30 37 H  30.4739 38.9743 85.2204 0
M  V30 38 H  31.3266 40.8655 85.2163 0
M  V30 39 H  30.8840 42.0968 84.0411 0
M  V30 40 H  27.1170 38.8107 84.5033 0
M  V30 41 H  25.9302 35.2860 81.6450 0
M  V30 42 H  23.5857 34.5271 81.6461 0
M  V30 43 H  22.0550 35.2160 83.4510 0
M  V30 44 H  25.2047 37.4509 85.2879 0
M  V30 45 H  34.3559 32.6469 83.1378 0
M  V30 END ATOM
M  V30 BEGIN BOND
M  V30 1 1 1 2
M  V30 2 1 1 6
M  V30 3 1 1 26
M  V30 4 1 1 27
M  V30 5 1 2 3
M  V30 6 1 2 28
M  V30 7 1 2 29
M  V30 8 1 3 4
M  V30 9 1 3 30
M  V30 10 1 3 31
M  V30 11 1 4 5
M  V30 12 1 4 32
M  V30 13 1 4 45
M  V30 14 1 5 6
M  V30 15 1 5 33
M  V30 16 1 5 34
M  V30 17 1 6 7
M  V30 18 1 6 35
M  V30 19 1 7 8
M  V30 20 1 7 36
M  V30 21 2 8 9
M  V30 22 1 8 10
M  V30 23 2 10 11
M  V30 24 1 10 18
M  V30 25 1 11 12
M  V30 26 1 11 16
M  V30 27 1 12 13
M  V30 28 1 12 37
M  V30 29 2 13 14
M  V30 30 1 13 15
M  V30 31 1 15 38
M  V30 32 1 15 39
M  V30 33 2 16 17
M  V30 34 1 16 40
M  V30 35 1 17 18
M  V30 36 1 17 19
M  V30 37 2 19 20
M  V30 38 1 19 25
M  V30 39 1 20 21
M  V30 40 1 20 41
M  V30 41 2 21 22
M  V30 42 1 21 42
M  V30 43 1 22 23
M  V30 44 1 22 43
M  V30 45 1 23 24
M  V30 46 2 23 25
M  V30 47 1 25 44
M  V30 END BOND
M  V30 END CTAB
M  END
> <s_m_entry_id>
700

> <s_m_entry_name>
result.2241

> <s_m_Source_Path>
D:\OneDrive - zju.edu.cn\DOC\A-Finished\LCK_VS\Planet\LCK-8617

> <s_m_Source_File>
glide-dock_SP_top1262_2_pv.maegz

> <i_m_Source_File_Index>
700

> <PLANET_affinity>
7.144

> <i_lp_mmshare_version>
54117

> <i_f3d_flags>
0

> <s_epik_input>
W0NIMl0xW05IXVtDSDJdW0NIMl1bQ0gyXVtDQEBIXTFbTkhdQyg9TyljMmMoW05IXUMoPU8pW05IMl0pW2NIXWMoczIpLWMzW2NIXVtjSF1bY0hdYyhGKVtjSF0z

> <s_epik_cmdline>
J2VwaWtfcHl0aG9uJywgJy1waCcsICc3LjAnLCAnLXRuJywgJzgnLCAnLW1hJywgJzUwMCcsICctaW1hZScsICc8aW5maWxlLm1hZT4nLCAnLW9tYWUnLCAnPG91dGZpbGUubWFlPic=

> <r_epik_Ionization_Penalty>
  0.0004

> <r_epik_Ionization_Penalty_Charging>
  0.0003

> <r_epik_Ionization_Penalty_Neutral>
  0.0000

> <r_epik_State_Penalty>
  0.0002

> <r_epik_Charging_Adjusted_Penalty>
0.000552967

> <i_epik_Tot_Q>
1

> <i_epik_Tot_abs_Q>
1

> <s_lp_Force_Field>
S-OPLS

> <r_lp_Energy>
35.516

> <b_lp_Chiralities_Consistent>
1

> <s_lp_Variant>
O=C(N[C@@H]1CNCCC1)C2=C(C=C(S2)C3=CC=CC(F)=C3)NC(N)=O-1

> <s_i_glide_gridfile>
glide-grid_1

> <i_i_glide_lignum>
2472

> <i_i_glide_rotatable_bonds>
6

> <r_i_docking_score>
-7.7862836635642

> <r_i_glide_ligand_efficiency>
-0.311451346542568

> <r_i_glide_ligand_efficiency_sa>
-0.910689260903619

> <r_i_glide_ligand_efficiency_ln>
-1.84558256435704

> <r_i_glide_gscore>
-7.7864836635642

> <r_i_glide_lipo>
-2.59486855221552

> <r_i_glide_hbond>
-0.591113207505201

> <r_i_glide_metal>
0

> <r_i_glide_rewards>
-1.51717605890422

> <r_i_glide_evdw>
-33.3301315307617

> <r_i_glide_ecoul>
-13.15159034729

> <r_i_glide_erotb>
0.727326935683536

> <r_i_glide_esite>
-0.171407651991195

> <r_i_glide_emodel>
-68.5648878956518

> <r_i_glide_energy>
-46.4817218780518

> <r_i_glide_einternal>
11.0748567581177

> <i_i_glide_confnum>
37

> <i_i_glide_posenum>
253

> <r_i_glide_eff_state_penalty>
0.0002

> <s_m_subgroup_title>
glide-dock_SP_top1262_2_pv

> <s_m_subgroupid>
glide-dock_SP_top1262_2_pv

> <b_m_subgroup_collapsed>
0

$$$$
O=C(O)C1=CC=CC=C1OC2=CC=CC(OCCCOC3=C(CC)C=C(C4=CC=C(F)C=C4)C(O)=C3)=C2CCC
                    3D
 Schrodinger Suite 2021-3.
  0  0  0     0  0            999 V3000
M  V30 BEGIN CTAB
M  V30 COUNTS 72 75 0 0 0
M  V30 BEGIN ATOM
M  V30 1 O  19.2754 39.0335 84.4437 0
M  V30 2 C  20.3680 38.9784 85.0558 0
M  V30 3 O  21.2280 39.8891 85.0121 0 CHG=-1
M  V30 4 C  20.6370 37.7596 85.8994 0
M  V30 5 C  19.5742 37.1697 86.6171 0
M  V30 6 C  19.7605 36.0177 87.3804 0
M  V30 7 C  21.0158 35.4315 87.4482 0
M  V30 8 C  22.0831 36.0056 86.7676 0
M  V30 9 C  21.9165 37.1549 85.9840 0
M  V30 10 O  23.0177 37.6785 85.3239 0
M  V30 11 C  23.7882 36.8928 84.4845 0
M  V30 12 C  23.1839 35.9504 83.6469 0
M  V30 13 C  23.9515 35.1629 82.7936 0
M  V30 14 C  25.3299 35.3406 82.7407 0
M  V30 15 C  25.9663 36.2929 83.5552 0
M  V30 16 C  25.1829 37.0832 84.4201 0
M  V30 17 C  25.8518 38.1601 85.2845 0
M  V30 18 C  25.9607 39.5376 84.5953 0
M  V30 19 C  26.8616 39.5711 83.3476 0
M  V30 20 O  27.3371 36.5045 83.5380 0
M  V30 21 C  28.1829 35.6185 82.8030 0
M  V30 22 C  29.6431 35.7625 83.2615 0
M  V30 23 C  30.4126 36.8561 82.5155 0
M  V30 24 O  31.6772 37.0232 83.1473 0
M  V30 25 C  32.4350 38.1289 82.8172 0
M  V30 26 C  33.3462 38.6129 83.7621 0
M  V30 27 C  33.5039 37.9250 85.1146 0
M  V30 28 C  32.3426 38.2197 86.0759 0
M  V30 29 C  34.0993 39.7541 83.4760 0
M  V30 30 C  33.9680 40.4371 82.2594 0
M  V30 31 C  33.0788 39.9187 81.3002 0
M  V30 32 O  32.8848 40.5116 80.0774 0
M  V30 33 C  32.3372 38.7758 81.5800 0
M  V30 34 C  34.7457 41.6961 82.0439 0
M  V30 35 C  34.7668 42.6836 83.0388 0
M  V30 36 C  35.4317 43.8908 82.8293 0
M  V30 37 C  36.0846 44.1160 81.6226 0
M  V30 38 F  36.7178 45.2943 81.4090 0
M  V30 39 C  36.0884 43.1402 80.6308 0
M  V30 40 C  35.4286 41.9317 80.8434 0
M  V30 41 H  18.5823 37.5988 86.5740 0
M  V30 42 H  18.9306 35.5786 87.9124 0
M  V30 43 H  21.1710 34.5370 88.0367 0
M  V30 44 H  23.0592 35.5569 86.8428 0
M  V30 45 H  22.1122 35.8173 83.6617 0
M  V30 46 H  23.4670 34.4384 82.1540 0
M  V30 47 H  25.8945 34.7411 82.0457 0
M  V30 48 H  25.2886 38.2718 86.2105 0
M  V30 49 H  26.8399 37.8224 85.6000 0
M  V30 50 H  24.9611 39.8879 84.3341 0
M  V30 51 H  26.3467 40.2582 85.3164 0
M  V30 52 H  26.9192 40.5769 82.9318 0
M  V30 53 H  27.8782 39.2560 83.5846 0
M  V30 54 H  26.4846 38.9189 82.5590 0
M  V30 55 H  27.8804 34.5839 82.9637 0
M  V30 56 H  28.0998 35.8326 81.7376 0
M  V30 57 H  29.6712 35.9656 84.3340 0
M  V30 58 H  30.1645 34.8138 83.1188 0
M  V30 59 H  30.5377 36.5726 81.4684 0
M  V30 60 H  29.8482 37.7875 82.5591 0
M  V30 61 H  33.5945 36.8491 84.9559 0
M  V30 62 H  34.4413 38.2310 85.5801 0
M  V30 63 H  32.4902 37.7179 87.0324 0
M  V30 64 H  32.2558 39.2884 86.2785 0
M  V30 65 H  31.3860 37.8809 85.6757 0
M  V30 66 H  34.7863 40.1283 84.2206 0
M  V30 67 H  32.2316 40.0472 79.5383 0
M  V30 68 H  31.6806 38.3897 80.8192 0
M  V30 69 H  34.2291 42.5366 83.9667 0
M  V30 70 H  35.4206 44.6553 83.5917 0
M  V30 71 H  36.5926 43.3281 79.6943 0
M  V30 72 H  35.4238 41.1856 80.0612 0
M  V30 END ATOM
M  V30 BEGIN BOND
M  V30 1 2 1 2
M  V30 2 1 2 3
M  V30 3 1 2 4
M  V30 4 2 4 5
M  V30 5 1 4 9
M  V30 6 1 5 6
M  V30 7 1 5 41
M  V30 8 2 6 7
M  V30 9 1 6 42
M  V30 10 1 7 8
M  V30 11 1 7 43
M  V30 12 2 8 9
M  V30 13 1 8 44
M  V30 14 1 9 10
M  V30 15 1 10 11
M  V30 16 2 11 12
M  V30 17 1 11 16
M  V30 18 1 12 13
M  V30 19 1 12 45
M  V30 20 2 13 14
M  V30 21 1 13 46
M  V30 22 1 14 15
M  V30 23 1 14 47
M  V30 24 2 15 16
M  V30 25 1 15 20
M  V30 26 1 16 17
M  V30 27 1 17 18
M  V30 28 1 17 48
M  V30 29 1 17 49
M  V30 30 1 18 19
M  V30 31 1 18 50
M  V30 32 1 18 51
M  V30 33 1 19 52
M  V30 34 1 19 53
M  V30 35 1 19 54
M  V30 36 1 20 21
M  V30 37 1 21 22
M  V30 38 1 21 55
M  V30 39 1 21 56
M  V30 40 1 22 23
M  V30 41 1 22 57
M  V30 42 1 22 58
M  V30 43 1 23 24
M  V30 44 1 23 59
M  V30 45 1 23 60
M  V30 46 1 24 25
M  V30 47 2 25 26
M  V30 48 1 25 33
M  V30 49 1 26 27
M  V30 50 1 26 29
M  V30 51 1 27 28
M  V30 52 1 27 61
M  V30 53 1 27 62
M  V30 54 1 28 63
M  V30 55 1 28 64
M  V30 56 1 28 65
M  V30 57 2 29 30
M  V30 58 1 29 66
M  V30 59 1 30 31
M  V30 60 1 30 34
M  V30 61 1 31 32
M  V30 62 2 31 33
M  V30 63 1 32 67
M  V30 64 1 33 68
M  V30 65 2 34 35
M  V30 66 1 34 40
M  V30 67 1 35 36
M  V30 68 1 35 69
M  V30 69 2 36 37
M  V30 70 1 36 70
M  V30 71 1 37 38
M  V30 72 1 37 39
M  V30 73 2 39 40
M  V30 74 1 39 71
M  V30 75 1 40 72
M  V30 END BOND
M  V30 END CTAB
M  END
> <s_m_entry_id>
703

> <s_m_entry_name>
result.2345

> <s_m_Source_Path>
D:\OneDrive - zju.edu.cn\DOC\A-Finished\LCK_VS\Planet\LCK-8617

> <s_m_Source_File>
glide-dock_SP_top1262_2_pv.maegz

> <i_m_Source_File_Index>
703

> <PLANET_affinity>
7.438

> <i_lp_mmshare_version>
54117

> <i_f3d_flags>
0

> <s_epik_input>
Tz1DKFtPSF0pYzFbY0hdW2NIXVtjSF1bY0hdYzFPYzJbY0hdW2NIXVtjSF1jKGMyW0NIMl1bQ0gyXVtDSDNdKU9bQ0gyXVtDSDJdW0NIMl1PYzNjKFtDSDJdW0NIM10pW2NIXWMoYyhbT0hdKVtjSF0zKS1jNFtjSF1bY0hdYyhGKVtjSF1bY0hdNA==

> <s_epik_cmdline>
J2VwaWtfcHl0aG9uJywgJy1waCcsICc3LjAnLCAnLXRuJywgJzgnLCAnLW1hJywgJzUwMCcsICctaW1hZScsICc8aW5maWxlLm1hZT4nLCAnLW9tYWUnLCAnPG91dGZpbGUubWFlPic=

> <r_epik_Ionization_Penalty>
  0.0015

> <r_epik_Ionization_Penalty_Charging>
  0.0001

> <r_epik_Ionization_Penalty_Neutral>
  0.0013

> <r_epik_State_Penalty>
  0.0009

> <r_epik_Charging_Adjusted_Penalty>
0.00103227

> <i_epik_Tot_Q>
-1

> <i_epik_Tot_abs_Q>
1

> <s_lp_Force_Field>
S-OPLS

> <r_lp_Energy>
58.5101

> <b_lp_Chiralities_Consistent>
1

> <s_lp_Variant>
O=C(O)C1=CC=CC=C1OC2=CC=CC(OCCCOC3=C(CC)C=C(C4=CC=C(F)C=C4)C(O)=C3)=C2CCC-1

> <s_i_glide_gridfile>
glide-grid_1

> <i_i_glide_lignum>
2034

> <i_i_glide_rotatable_bonds>
14

> <r_i_docking_score>
-7.78313488597547

> <r_i_glide_ligand_efficiency>
-0.194578372149387

> <r_i_glide_ligand_efficiency_sa>
-0.665448671419663

> <r_i_glide_ligand_efficiency_ln>
-1.65991362374366

> <r_i_glide_gscore>
-7.78403488597547

> <r_i_glide_lipo>
-4.41191780555398

> <r_i_glide_hbond>
-0.402786888228953

> <r_i_glide_metal>
0

> <r_i_glide_rewards>
-0.418030227138414

> <r_i_glide_evdw>
-48.071460723877

> <r_i_glide_ecoul>
-5.65333604812622

> <r_i_glide_erotb>
0.700273478358657

> <r_i_glide_esite>
0

> <r_i_glide_emodel>
-78.0182741217053

> <r_i_glide_energy>
-53.7247967720032

> <r_i_glide_einternal>
3.55235934257507

> <i_i_glide_confnum>
47

> <i_i_glide_posenum>
50

> <r_i_glide_eff_state_penalty>
0.0009

> <r_lp_tautomer_probability>
1

> <s_m_subgroup_title>
glide-dock_SP_top1262_2_pv

> <s_m_subgroupid>
glide-dock_SP_top1262_2_pv

> <b_m_subgroup_collapsed>
0

$$$$
CN(N=C1)C=C1C2=CC=C3C(N=CN3C4=CC(C5=CC=C(F)C=C5F)=CC(NS(C6CC6)(=O)=O)=C4)=C2
                    3D
 Schrodinger Suite 2021-3.
  0  0  0     0  0            999 V3000
M  V30 BEGIN CTAB
M  V30 COUNTS 57 62 0 0 0
M  V30 BEGIN ATOM
M  V30 1 C  17.9623 37.7017 87.4582 0
M  V30 2 N  18.9921 37.4864 86.4622 0
M  V30 3 N  18.6707 37.5738 85.1676 0
M  V30 4 C  19.7989 37.3539 84.5373 0
M  V30 5 C  20.8877 37.1288 85.3980 0
M  V30 6 C  20.3257 37.2366 86.6595 0
M  V30 7 C  22.3022 36.8770 85.0106 0
M  V30 8 C  23.3556 37.5009 85.6870 0
M  V30 9 C  24.6901 37.3702 85.2838 0
M  V30 10 C  22.5589 36.0368 83.9266 0
M  V30 11 C  23.8804 35.8946 83.4951 0
M  V30 12 C  24.9391 36.5871 84.1464 0
M  V30 13 N  24.3327 35.1566 82.4459 0
M  V30 14 C  25.6138 35.3920 82.4342 0
M  V30 15 N  26.0688 36.2819 83.3853 0
M  V30 16 C  27.4045 36.7506 83.4635 0
M  V30 17 C  27.7140 37.9672 84.0785 0
M  V30 18 C  29.0362 38.4176 84.1802 0
M  V30 19 C  29.3502 39.7104 84.8494 0
M  V30 20 C  30.3835 39.7776 85.7951 0
M  V30 21 C  30.6827 40.9742 86.4457 0
M  V30 22 C  29.9493 42.1230 86.1627 0
M  V30 23 F  30.2275 43.2778 86.8079 0
M  V30 24 C  28.9231 42.0772 85.2229 0
M  V30 25 C  28.6297 40.8833 84.5650 0
M  V30 26 F  27.6408 40.8776 83.6425 0
M  V30 27 C  30.0573 37.6187 83.6526 0
M  V30 28 C  29.7749 36.3967 83.0322 0
M  V30 29 C  28.4527 35.9736 82.9437 0
M  V30 30 N  30.7681 35.5570 82.5093 0
M  V30 31 S  32.4454 36.0537 82.2686 0
M  V30 32 O  32.4374 37.1033 81.2447 0
M  V30 33 O  32.9990 36.3268 83.6015 0
M  V30 34 C  33.2292 34.4809 81.5604 0
M  V30 35 C  34.6376 34.1576 81.9878 0
M  V30 36 C  33.4738 33.3496 82.5305 0
M  V30 37 H  18.3327 37.4160 88.4427 0
M  V30 38 H  17.0821 37.0933 87.2240 0
M  V30 39 H  17.6808 38.7592 87.4709 0
M  V30 40 H  19.8458 37.3779 83.4608 0
M  V30 41 H  20.7398 37.1499 87.6520 0
M  V30 42 H  23.1297 38.1362 86.5304 0
M  V30 43 H  25.4699 37.8757 85.8297 0
M  V30 44 H  21.7609 35.5265 83.4070 0
M  V30 45 H  26.2912 35.0191 81.6842 0
M  V30 46 H  26.9283 38.5919 84.4662 0
M  V30 47 H  30.9537 38.8936 86.0466 0
M  V30 48 H  31.4763 41.0069 87.1766 0
M  V30 49 H  28.3674 42.9726 84.9942 0
M  V30 50 H  31.0775 37.9624 83.7278 0
M  V30 51 H  28.2631 35.0144 82.4847 0
M  V30 52 H  30.4896 34.6836 82.0867 0
M  V30 53 H  32.8851 34.2746 80.5485 0
M  V30 54 H  35.3066 33.7029 81.2575 0
M  V30 55 H  35.1588 34.8477 82.6533 0
M  V30 56 H  33.1801 33.4755 83.5740 0
M  V30 57 H  33.3267 32.3278 82.1787 0
M  V30 END ATOM
M  V30 BEGIN BOND
M  V30 1 1 1 2
M  V30 2 1 1 37
M  V30 3 1 1 38
M  V30 4 1 1 39
M  V30 5 1 2 3
M  V30 6 1 2 6
M  V30 7 2 3 4
M  V30 8 1 4 5
M  V30 9 1 4 40
M  V30 10 2 5 6
M  V30 11 1 5 7
M  V30 12 1 6 41
M  V30 13 2 7 8
M  V30 14 1 7 10
M  V30 15 1 8 9
M  V30 16 1 8 42
M  V30 17 2 9 12
M  V30 18 1 9 43
M  V30 19 2 10 11
M  V30 20 1 10 44
M  V30 21 1 11 12
M  V30 22 1 11 13
M  V30 23 1 12 15
M  V30 24 2 13 14
M  V30 25 1 14 15
M  V30 26 1 14 45
M  V30 27 1 15 16
M  V30 28 2 16 17
M  V30 29 1 16 29
M  V30 30 1 17 18
M  V30 31 1 17 46
M  V30 32 1 18 19
M  V30 33 2 18 27
M  V30 34 2 19 20
M  V30 35 1 19 25
M  V30 36 1 20 21
M  V30 37 1 20 47
M  V30 38 2 21 22
M  V30 39 1 21 48
M  V30 40 1 22 23
M  V30 41 1 22 24
M  V30 42 2 24 25
M  V30 43 1 24 49
M  V30 44 1 25 26
M  V30 45 1 27 28
M  V30 46 1 27 50
M  V30 47 2 28 29
M  V30 48 1 28 30
M  V30 49 1 29 51
M  V30 50 1 30 31
M  V30 51 1 30 52
M  V30 52 2 31 32
M  V30 53 2 31 33
M  V30 54 1 31 34
M  V30 55 1 34 35
M  V30 56 1 34 36
M  V30 57 1 34 53
M  V30 58 1 35 36
M  V30 59 1 35 54
M  V30 60 1 35 55
M  V30 61 1 36 56
M  V30 62 1 36 57
M  V30 END BOND
M  V30 END CTAB
M  END
> <s_m_entry_id>
713

> <s_m_entry_name>
result.7982

> <s_m_Source_Path>
D:\OneDrive - zju.edu.cn\DOC\A-Finished\LCK_VS\Planet\LCK-8617

> <s_m_Source_File>
glide-dock_SP_top1262_2_pv.maegz

> <i_m_Source_File_Index>
713

> <PLANET_affinity>
7.716

> <i_lp_mmshare_version>
54117

> <i_f3d_flags>
0

> <s_epik_input>
W0NIM11uMW5bY0hdYyhbY0hdMSktYyhbY0hdMilbY0hdW2NIXWMoYzIzKW4oW2NIXW4zKS1jNFtjSF1jKC1jNVtjSF1bY0hdYyhGKVtjSF1jNUYpW2NIXWMoW2NIXTQpW05IXVMoPU8pKD1PKVtDSF02W0NIMl1bQ0gyXTY=

> <s_epik_cmdline>
J2VwaWtfcHl0aG9uJywgJy1waCcsICc3LjAnLCAnLXRuJywgJzgnLCAnLW1hJywgJzUwMCcsICctaW1hZScsICc8aW5maWxlLm1hZT4nLCAnLW9tYWUnLCAnPG91dGZpbGUubWFlPic=

> <r_epik_Ionization_Penalty>
  0.1656

> <r_epik_Ionization_Penalty_Charging>
  0.0000

> <r_epik_Ionization_Penalty_Neutral>
  0.1656

> <r_epik_State_Penalty>
  0.1595

> <r_epik_Charging_Adjusted_Penalty>
0.159525

> <i_epik_Tot_Q>
0

> <i_epik_Tot_abs_Q>
0

> <s_lp_Force_Field>
S-OPLS

> <r_lp_Energy>
47.4601

> <b_lp_Chiralities_Consistent>
1

> <s_lp_Variant>
CN(N=C1)C=C1C2=CC=C3C(N=CN3C4=CC(C5=CC=C(F)C=C5F)=CC(NS(C6CC6)(=O)=O)=C4)=C2-1

> <s_i_glide_gridfile>
glide-grid_1

> <i_i_glide_lignum>
1629

> <i_i_glide_rotatable_bonds>
6

> <r_i_docking_score>
-7.77634536113811

> <r_i_glide_ligand_efficiency>
-0.216009593364948

> <r_i_glide_ligand_efficiency_sa>
-0.713247961502389

> <r_i_glide_ligand_efficiency_ln>
-1.69658846522787

> <r_i_glide_gscore>
-7.93584536113811

> <r_i_glide_lipo>
-3.13924978585866

> <r_i_glide_hbond>
-0.179270114595467

> <r_i_glide_metal>
0

> <r_i_glide_rewards>
-1.86650353322629

> <r_i_glide_evdw>
-50.3252220153809

> <r_i_glide_ecoul>
-4.51702356338501

> <r_i_glide_erotb>
0.480196401959608

> <r_i_glide_esite>
-0.0372036941405164

> <r_i_glide_emodel>
-77.4548554361442

> <r_i_glide_energy>
-54.8422455787659

> <r_i_glide_einternal>
8.95470714569092

> <i_i_glide_confnum>
24

> <i_i_glide_posenum>
360

> <r_i_glide_eff_state_penalty>
0.1595

> <r_lp_tautomer_probability>
1

> <s_m_subgroup_title>
glide-dock_SP_top1262_2_pv

> <s_m_subgroupid>
glide-dock_SP_top1262_2_pv

> <b_m_subgroup_collapsed>
0

$$$$
CC(C(Cl)=C(OCCN1CCN(C)CC1)C=C2)=[C@@]2[C@]3=C(C4=CC=C(F)O4)SC5=NC=NC(O[C@H](C...
                    3D
 Schrodinger Suite 2021-3.
  0  0  0     0  0            999 V3000
M  V30 BEGIN CTAB
M  V30 COUNTS 94 100 0 0 0
M  V30 BEGIN ATOM
M  V30 1 C  29.8224 40.8849 84.5760 0
M  V30 2 C  30.2035 40.2284 83.2318 0
M  V30 3 N  31.5897 40.7563 82.7975 0 CHG=1
M  V30 4 C  32.0237 40.1680 81.4378 0
M  V30 5 C  32.6104 40.4250 83.9112 0
M  V30 6 C  32.1237 41.0739 85.2271 0
M  V30 7 N  30.8045 40.5510 85.6216 0 CFG=1
M  V30 8 C  30.4537 41.0962 86.9466 0
M  V30 9 C  29.0771 40.6488 87.4816 0
M  V30 10 O  28.0507 41.4624 86.9093 0
M  V30 11 C  26.7953 40.9204 86.7091 0
M  V30 12 C  25.9887 41.4885 85.7086 0
M  V30 13 Cl 26.5733 42.8814 84.8559 0
M  V30 14 C  24.7459 40.9136 85.3798 0
M  V30 15 C  23.8776 41.5256 84.2777 0
M  V30 16 C  26.3203 39.8166 87.4266 0
M  V30 17 C  25.0955 39.2471 87.1083 0
M  V30 18 C  24.3200 39.7610 86.0656 0
M  V30 19 C  23.0810 39.0009 85.7312 0
M  V30 20 C  23.0532 37.7794 85.0524 0
M  V30 21 S  21.4308 37.1202 84.8803 0
M  V30 22 C  24.1875 37.0595 84.4485 0
M  V30 23 C  25.5735 37.1688 84.5374 0
M  V30 24 C  26.1256 36.2598 83.6378 0
M  V30 25 C  25.0591 35.6343 83.0225 0
M  V30 26 F  24.9979 34.7515 82.0597 0
M  V30 27 O  23.8939 36.0901 83.5389 0
M  V30 28 C  21.7629 39.4397 86.0761 0
M  V30 29 C  20.7564 38.5034 85.7061 0
M  V30 30 C  21.2827 40.5932 86.7270 0
M  V30 31 N  19.9642 40.7682 87.0113 0
M  V30 32 C  19.1262 39.7810 86.6144 0
M  V30 33 N  19.4490 38.6416 85.9512 0
M  V30 34 O  22.2145 41.5503 87.0948 0
M  V30 35 C  21.8920 42.5908 88.0392 0 CFG=1
M  V30 36 C  21.6826 41.9960 89.4666 0
M  V30 37 O  21.0322 42.6828 90.2927 0 CHG=-1
M  V30 38 O  22.0877 40.8347 89.7183 0
M  V30 39 C  23.0629 43.6108 87.9917 0
M  V30 40 C  22.8646 44.8860 88.8167 0
M  V30 41 C  23.3420 44.9936 90.1368 0
M  V30 42 C  23.1525 46.2022 90.8305 0
M  V30 43 C  22.4802 47.2685 90.2355 0
M  V30 44 C  21.9868 47.1453 88.9414 0
M  V30 45 C  22.1799 45.9611 88.2346 0
M  V30 46 O  23.9735 43.8905 90.6919 0
M  V30 47 C  24.3011 43.8903 92.0794 0
M  V30 48 C  24.7661 42.5045 92.4816 0
M  V30 49 C  26.0316 41.9390 92.4566 0
M  V30 50 C  25.8753 40.6291 92.8992 0
M  V30 51 N  24.6363 40.3571 93.2102 0
M  V30 52 N  23.9560 41.4895 92.9711 0
M  V30 53 C  22.4976 41.4806 93.1304 0
M  V30 54 C  21.9733 40.6862 94.3474 0
M  V30 55 F  20.6494 40.8107 94.4420 0
M  V30 56 F  22.4966 41.1342 95.4846 0
M  V30 57 F  22.2259 39.3788 94.2616 0
M  V30 58 H  28.8405 40.5030 84.8509 0
M  V30 59 H  29.7210 41.9693 84.4671 0
M  V30 60 H  29.5051 40.5040 82.4438 0
M  V30 61 H  30.2629 39.1385 83.2999 0
M  V30 62 H  32.0710 39.0782 81.5258 0
M  V30 63 H  31.2843 40.4731 80.6913 0
M  V30 64 H  33.0046 40.5868 81.1995 0
M  V30 65 H  33.5709 40.8347 83.5900 0
M  V30 66 H  32.6835 39.3352 83.9854 0
M  V30 67 H  32.0906 42.1636 85.1194 0
M  V30 68 H  32.8540 40.8600 86.0105 0
M  V30 69 H  30.4938 42.1873 86.9311 0
M  V30 70 H  31.2071 40.7579 87.6606 0
M  V30 71 H  29.0430 40.7588 88.5670 0
M  V30 72 H  28.9482 39.5872 87.2583 0
M  V30 73 H  24.4746 41.9574 83.4741 0
M  V30 74 H  23.2391 40.7846 83.7980 0
M  V30 75 H  23.2458 42.3145 84.6858 0
M  V30 76 H  26.8973 39.3790 88.2273 0
M  V30 77 H  24.7573 38.3811 87.6582 0
M  V30 78 H  26.1325 37.8501 85.1600 0
M  V30 79 H  27.1728 36.0945 83.4330 0
M  V30 80 H  18.0848 39.9291 86.8437 0
M  V30 81 H  20.9820 43.1064 87.7219 0
M  V30 82 H  23.2148 43.9060 86.9514 0
M  V30 83 H  24.0028 43.1323 88.2696 0
M  V30 84 H  23.5102 46.3309 91.8401 0
M  V30 85 H  22.3300 48.1853 90.7857 0
M  V30 86 H  21.4494 47.9623 88.4829 0
M  V30 87 H  21.7860 45.8751 87.2301 0
M  V30 88 H  23.4523 44.2048 92.6880 0
M  V30 89 H  25.1078 44.6014 92.2655 0
M  V30 90 H  26.9437 42.4158 92.1350 0
M  V30 91 H  26.6490 39.8878 92.9989 0
M  V30 92 H  22.0828 41.0481 92.2291 0
M  V30 93 H  22.1381 42.5067 93.1822 0
M  V30 94 H  31.5218 41.7726 82.7412 0
M  V30 END ATOM
M  V30 BEGIN BOND
M  V30 1 1 1 2
M  V30 2 1 1 7
M  V30 3 1 1 58
M  V30 4 1 1 59
M  V30 5 1 2 3
M  V30 6 1 2 60
M  V30 7 1 2 61
M  V30 8 1 3 4
M  V30 9 1 3 5
M  V30 10 1 3 94
M  V30 11 1 4 62
M  V30 12 1 4 63
M  V30 13 1 4 64
M  V30 14 1 5 6
M  V30 15 1 5 65
M  V30 16 1 5 66
M  V30 17 1 6 7
M  V30 18 1 6 67
M  V30 19 1 6 68
M  V30 20 1 7 8
M  V30 21 1 8 9
M  V30 22 1 8 69
M  V30 23 1 8 70
M  V30 24 1 9 10
M  V30 25 1 9 71
M  V30 26 1 9 72
M  V30 27 1 10 11
M  V30 28 2 11 12
M  V30 29 1 11 16
M  V30 30 1 12 13
M  V30 31 1 12 14
M  V30 32 1 14 15
M  V30 33 2 14 18
M  V30 34 1 15 73
M  V30 35 1 15 74
M  V30 36 1 15 75
M  V30 37 2 16 17
M  V30 38 1 16 76
M  V30 39 1 17 18
M  V30 40 1 17 77
M  V30 41 1 18 19
M  V30 42 2 19 20
M  V30 43 1 19 28
M  V30 44 1 20 21
M  V30 45 1 20 22
M  V30 46 1 21 29
M  V30 47 2 22 23
M  V30 48 1 22 27
M  V30 49 1 23 24
M  V30 50 1 23 78
M  V30 51 2 24 25
M  V30 52 1 24 79
M  V30 53 1 25 26
M  V30 54 1 25 27
M  V30 55 2 28 29
M  V30 56 1 28 30
M  V30 57 1 29 33
M  V30 58 2 30 31
M  V30 59 1 30 34
M  V30 60 1 31 32
M  V30 61 2 32 33
M  V30 62 1 32 80
M  V30 63 1 34 35
M  V30 64 1 35 36
M  V30 65 1 35 39
M  V30 66 1 35 81
M  V30 67 1 36 37
M  V30 68 2 36 38
M  V30 69 1 39 40
M  V30 70 1 39 82
M  V30 71 1 39 83
M  V30 72 1 40 41
M  V30 73 2 40 45
M  V30 74 2 41 42
M  V30 75 1 41 46
M  V30 76 1 42 43
M  V30 77 1 42 84
M  V30 78 2 43 44
M  V30 79 1 43 85
M  V30 80 1 44 45
M  V30 81 1 44 86
M  V30 82 1 45 87
M  V30 83 1 46 47
M  V30 84 1 47 48
M  V30 85 1 47 88
M  V30 86 1 47 89
M  V30 87 2 48 49
M  V30 88 1 48 52
M  V30 89 1 49 50
M  V30 90 1 49 90
M  V30 91 2 50 51
M  V30 92 1 50 91
M  V30 93 1 51 52
M  V30 94 1 52 53
M  V30 95 1 53 54
M  V30 96 1 53 92
M  V30 97 1 53 93
M  V30 98 1 54 55
M  V30 99 1 54 56
M  V30 100 1 54 57
M  V30 END BOND
M  V30 END CTAB
M  END
> <s_m_entry_id>
714

> <s_m_entry_name>
result.592

> <s_m_Source_Path>
D:\OneDrive - zju.edu.cn\DOC\A-Finished\LCK_VS\Planet\LCK-8617

> <s_m_Source_File>
glide-dock_SP_top1262_2_pv.maegz

> <i_m_Source_File_Index>
714

> <PLANET_affinity>
10.871

> <i_lp_mmshare_version>
54117

> <i_f3d_flags>
0

> <s_epik_input>
W0NIM11OMVtDSDJdW0NIMl1OKFtDSDJdW0NIMl0xKVtDSDJdW0NIMl1PYzJjKENsKWMoW0NIM10pYyhbY0hdW2NIXTIpLWMzYygtYzRbY0hdW2NIXWMoRilvNClzYyhjMzUpbltjSF1uYzVPW0NAQEhdKEMoPU8pW09IXSlbQ0gyXWM2YyhbY0hdW2NIXVtjSF1bY0hdNilPW0NIMl1jN1tjSF1bY0hdbm43W0NIMl1DKEYpKEYpRg==

> <s_epik_cmdline>
J2VwaWtfcHl0aG9uJywgJy1waCcsICc3LjAnLCAnLXRuJywgJzgnLCAnLW1hJywgJzUwMCcsICctaW1hZScsICc8aW5maWxlLm1hZT4nLCAnLW9tYWUnLCAnPG91dGZpbGUubWFlPic=

> <r_epik_Ionization_Penalty>
  0.0449

> <r_epik_Ionization_Penalty_Charging>
  0.0400

> <r_epik_Ionization_Penalty_Neutral>
  0.0049

> <r_epik_State_Penalty>
  0.1213

> <r_epik_Charging_Adjusted_Penalty>
0.161247

> <i_epik_Tot_Q>
0

> <i_epik_Tot_abs_Q>
2

> <s_lp_Force_Field>
S-OPLS

> <r_lp_Energy>
81.7303

> <b_lp_Chiralities_Consistent>
1

> <s_lp_Variant>
CC(C(Cl)=C(OCCN1CCN(C)CC1)C=C2)=[C@@]2[C@]3=C(C4=CC=C(F)O4)SC5=NC=NC(O[C@H](C...-1

> <s_i_glide_gridfile>
glide-grid_1

> <i_i_glide_lignum>
165

> <i_i_glide_rotatable_bonds>
16

> <r_i_docking_score>
-7.77507287187019

> <r_i_glide_ligand_efficiency>
-0.136404787225793

> <r_i_glide_ligand_efficiency_sa>
-0.524953977242564

> <r_i_glide_ligand_efficiency_ln>
-1.54173980372973

> <r_i_glide_gscore>
-7.89637287187019

> <r_i_glide_lipo>
-2.95011883619333

> <r_i_glide_hbond>
-0.2

> <r_i_glide_metal>
0

> <r_i_glide_rewards>
-1.20634642677969

> <r_i_glide_evdw>
-55.6919822692871

> <r_i_glide_ecoul>
-5.4665207862854

> <r_i_glide_erotb>
0.235742335745606

> <r_i_glide_esite>
-0.171072713235615

> <r_i_glide_emodel>
-95.8100505136092

> <r_i_glide_energy>
-61.1585030555725

> <r_i_glide_einternal>
3.72821378707886

> <i_i_glide_confnum>
228

> <i_i_glide_posenum>
283

> <r_i_glide_eff_state_penalty>
0.1213

> <r_lp_tautomer_probability>
1

> <s_m_subgroup_title>
glide-dock_SP_top1262_2_pv

> <s_m_subgroupid>
glide-dock_SP_top1262_2_pv

> <b_m_subgroup_collapsed>
0

$$$$
O=C1N(C2=CC=CC=C2)C([C@@H](NC3=C4N=CNC4=NC=N3)CC)=NC5=C1C(F)=CC=C5
                    3D
 Schrodinger Suite 2021-3.
  0  0  0     0  0            999 V3000
M  V30 BEGIN CTAB
M  V30 COUNTS 49 53 0 0 0
M  V30 BEGIN ATOM
M  V30 1 C  18.5984 38.7249 86.7465 0
M  V30 2 C  17.5181 38.3510 85.9570 0
M  V30 3 C  17.6830 38.2351 84.5817 0
M  V30 4 C  18.9132 38.4756 83.9887 0
M  V30 5 C  19.9817 38.9065 84.7664 0
M  V30 6 C  19.8416 39.0153 86.1573 0
M  V30 7 N  20.9443 39.4491 86.9536 0
M  V30 8 C  20.7524 40.6398 87.6444 0
M  V30 9 O  19.6832 41.2477 87.6829 0
M  V30 10 C  21.9710 41.1238 88.4041 0
M  V30 11 C  23.1295 40.3597 88.3360 0
M  V30 12 C  21.9654 42.3113 89.1505 0
M  V30 13 F  20.8591 43.0806 89.2686 0
M  V30 14 C  23.1274 42.7090 89.8128 0
M  V30 15 C  24.2880 41.9390 89.7385 0
M  V30 16 C  24.2865 40.7576 88.9997 0
M  V30 17 C  22.1376 38.7163 87.0006 0
M  V30 18 N  23.1645 39.1566 87.6436 0
M  V30 19 C  22.2702 37.3288 86.2969 0 CFG=2
M  V30 20 C  21.9260 36.1306 87.2222 0
M  V30 21 C  20.4323 35.9568 87.5421 0
M  V30 22 N  23.6371 37.2421 85.7589 0
M  V30 23 C  23.9629 36.5567 84.5862 0
M  V30 24 N  22.9832 35.8984 83.9139 0
M  V30 25 C  23.3401 35.2416 82.7870 0
M  V30 26 N  24.5723 35.1570 82.2216 0
M  V30 27 C  25.4968 35.8362 82.9011 0
M  V30 28 C  25.2818 36.5655 84.0927 0
M  V30 29 N  26.8297 36.0012 82.6228 0
M  V30 30 C  27.3341 36.7989 83.6272 0
M  V30 31 N  26.4447 37.1567 84.5234 0
M  V30 32 H  18.4510 38.8236 87.8125 0
M  V30 33 H  16.5547 38.1648 86.4110 0
M  V30 34 H  16.8470 37.9567 83.9613 0
M  V30 35 H  19.0267 38.3570 82.9209 0
M  V30 36 H  20.9230 39.1403 84.2881 0
M  V30 37 H  23.1245 43.6260 90.3837 0
M  V30 38 H  25.1833 42.2567 90.2530 0
M  V30 39 H  25.1771 40.1503 88.9402 0
M  V30 40 H  21.6004 37.2627 85.4479 0
M  V30 41 H  22.2538 35.2093 86.7413 0
M  V30 42 H  22.4828 36.1873 88.1541 0
M  V30 43 H  20.2549 35.0151 88.0627 0
M  V30 44 H  20.0626 36.7567 88.1825 0
M  V30 45 H  19.8291 35.9424 86.6334 0
M  V30 46 H  24.3596 37.7549 86.2473 0
M  V30 47 H  22.5323 34.7569 82.2698 0
M  V30 48 H  27.3651 35.6373 81.8440 0
M  V30 49 H  28.3807 37.0711 83.6251 0
M  V30 END ATOM
M  V30 BEGIN BOND
M  V30 1 2 1 2
M  V30 2 1 1 6
M  V30 3 1 1 32
M  V30 4 1 2 3
M  V30 5 1 2 33
M  V30 6 2 3 4
M  V30 7 1 3 34
M  V30 8 1 4 5
M  V30 9 1 4 35
M  V30 10 2 5 6
M  V30 11 1 5 36
M  V30 12 1 6 7
M  V30 13 1 7 8
M  V30 14 1 7 17
M  V30 15 2 8 9
M  V30 16 1 8 10
M  V30 17 2 10 11
M  V30 18 1 10 12
M  V30 19 1 11 18
M  V30 20 1 11 16
M  V30 21 1 12 13
M  V30 22 2 12 14
M  V30 23 1 14 15
M  V30 24 1 14 37
M  V30 25 2 15 16
M  V30 26 1 15 38
M  V30 27 1 16 39
M  V30 28 2 17 18
M  V30 29 1 17 19
M  V30 30 1 19 20
M  V30 31 1 19 22
M  V30 32 1 19 40
M  V30 33 1 20 21
M  V30 34 1 20 41
M  V30 35 1 20 42
M  V30 36 1 21 43
M  V30 37 1 21 44
M  V30 38 1 21 45
M  V30 39 1 22 23
M  V30 40 1 22 46
M  V30 41 2 23 24
M  V30 42 1 23 28
M  V30 43 1 24 25
M  V30 44 2 25 26
M  V30 45 1 25 47
M  V30 46 1 26 27
M  V30 47 2 27 28
M  V30 48 1 27 29
M  V30 49 1 28 31
M  V30 50 1 29 30
M  V30 51 1 29 48
M  V30 52 2 30 31
M  V30 53 1 30 49
M  V30 END BOND
M  V30 END CTAB
M  END
> <s_m_entry_id>
715

> <s_m_entry_name>
result.2218

> <s_m_Source_Path>
D:\OneDrive - zju.edu.cn\DOC\A-Finished\LCK_VS\Planet\LCK-8617

> <s_m_Source_File>
glide-dock_SP_top1262_2_pv.maegz

> <i_m_Source_File_Index>
715

> <PLANET_affinity>
7.102

> <i_lp_mmshare_version>
54117

> <i_f3d_flags>
0

> <s_epik_input>
W2NIXTFbY0hdW2NIXVtjSF1bY0hdYzEtbihjMj1PKWMobmMoYzIzKVtjSF1bY0hdW2NIXWMzRilbQ0BIXShbQ0gyXVtDSDNdKVtOSF1jKG5bY0hdbjQpYyhjNDUpbltjSF1bbkhdNQ==

> <s_epik_cmdline>
J2VwaWtfcHl0aG9uJywgJy1waCcsICc3LjAnLCAnLXRuJywgJzgnLCAnLW1hJywgJzUwMCcsICctaW1hZScsICc8aW5maWxlLm1hZT4nLCAnLW9tYWUnLCAnPG91dGZpbGUubWFlPic=

> <r_epik_Ionization_Penalty>
  0.0022

> <r_epik_Ionization_Penalty_Charging>
  0.0000

> <r_epik_Ionization_Penalty_Neutral>
  0.0022

> <r_epik_State_Penalty>
  0.0207

> <r_epik_Charging_Adjusted_Penalty>
0.0207074

> <i_epik_Tot_Q>
0

> <i_epik_Tot_abs_Q>
0

> <s_lp_Force_Field>
S-OPLS

> <r_lp_Energy>
61.0968

> <b_lp_Chiralities_Consistent>
1

> <s_lp_Variant>
O=C1N(C2=CC=CC=C2)C([C@@H](NC3=C4N=CNC4=NC=N3)CC)=NC5=C1C(F)=CC=C5-1

> <s_i_glide_gridfile>
glide-grid_1

> <i_i_glide_lignum>
2534

> <i_i_glide_rotatable_bonds>
5

> <r_i_docking_score>
-7.77472761387809

> <r_i_glide_ligand_efficiency>
-0.250797664963809

> <r_i_glide_ligand_efficiency_sa>
-0.787850931480426

> <r_i_glide_ligand_efficiency_ln>
-1.75343934371612

> <r_i_glide_gscore>
-7.79542761387809

> <r_i_glide_lipo>
-2.09219236847167

> <r_i_glide_hbond>
-0.558851213635307

> <r_i_glide_metal>
0

> <r_i_glide_rewards>
-2.50097209098132

> <r_i_glide_evdw>
-42.8256721496582

> <r_i_glide_ecoul>
-4.89654731750488

> <r_i_glide_erotb>
0.320383203959841

> <r_i_glide_esite>
-0.0880294396409919

> <r_i_glide_emodel>
-69.4740899460717

> <r_i_glide_energy>
-47.7222194671631

> <r_i_glide_einternal>
1.52657234668732

> <i_i_glide_confnum>
30

> <i_i_glide_posenum>
114

> <r_i_glide_eff_state_penalty>
0.0207

> <r_lp_tautomer_probability>
0.955582

> <s_m_subgroup_title>
glide-dock_SP_top1262_2_pv

> <s_m_subgroupid>
glide-dock_SP_top1262_2_pv

> <b_m_subgroup_collapsed>
0

$$$$
O=C(NC)C1=NN(C2=C1C(C)(CC3=CN=C(N=C23)NC4=CC=C(C=C4)N5CCN(CC5)C)C)C
                    3D
 Schrodinger Suite 2021-3.
  0  0  0     0  0            999 V3000
M  V30 BEGIN CTAB
M  V30 COUNTS 67 71 0 0 0
M  V30 BEGIN ATOM
M  V30 1 C  20.6757 42.1523 87.9198 0
M  V30 2 N  21.6410 41.3779 87.1524 0
M  V30 3 C  21.8177 40.0515 87.2718 0
M  V30 4 O  21.1689 39.3471 88.0427 0
M  V30 5 C  22.8619 39.5107 86.4367 0
M  V30 6 N  24.0128 40.1339 86.2713 0
M  V30 7 N  24.7661 39.3440 85.5082 0
M  V30 8 C  26.0960 39.7954 85.1392 0
M  V30 9 C  22.8599 38.2542 85.7649 0
M  V30 10 C  24.1234 38.1798 85.1688 0
M  V30 11 C  21.8449 37.0890 85.5851 0
M  V30 12 C  22.0859 36.0226 86.6746 0
M  V30 13 C  20.3760 37.5810 85.5562 0
M  V30 14 C  22.1108 36.4727 84.1622 0
M  V30 15 C  23.5775 36.2129 83.8159 0
M  V30 16 C  24.5818 37.0580 84.3040 0
M  V30 17 N  25.8824 36.9530 83.9172 0
M  V30 18 C  26.1744 36.0093 82.9854 0
M  V30 19 N  25.2756 35.1513 82.4479 0
M  V30 20 C  23.9950 35.2500 82.8892 0
M  V30 21 N  27.4863 35.8610 82.5095 0
M  V30 22 C  28.7237 36.3560 82.9444 0
M  V30 23 C  29.8539 35.5928 82.6646 0
M  V30 24 C  31.0996 35.9730 83.1532 0
M  V30 25 C  31.2404 37.1405 83.9138 0
M  V30 26 C  30.1115 37.9403 84.1304 0
M  V30 27 C  28.8658 37.5523 83.6514 0
M  V30 28 N  32.4645 37.4894 84.4734 0
M  V30 29 C  33.7750 37.2353 83.8504 0
M  V30 30 C  34.7385 36.4370 84.7576 0
M  V30 31 N  34.9442 37.2365 86.0642 0 CHG=1
M  V30 32 C  35.9315 36.5112 87.0047 0
M  V30 33 C  33.5689 37.3959 86.7489 0
M  V30 34 C  32.6123 38.1395 85.7898 0
M  V30 35 H  20.8827 43.2152 87.7915 0
M  V30 36 H  20.7410 41.9257 88.9841 0
M  V30 37 H  19.6578 41.9554 87.5777 0
M  V30 38 H  22.1593 41.8701 86.4400 0
M  V30 39 H  26.8344 39.1600 85.6279 0
M  V30 40 H  26.2098 39.7307 84.0580 0
M  V30 41 H  26.2632 40.8304 85.4463 0
M  V30 42 H  21.4921 35.1223 86.5024 0
M  V30 43 H  23.1317 35.7239 86.7182 0
M  V30 44 H  21.8272 36.4066 87.6615 0
M  V30 45 H  19.7044 36.8195 85.1579 0
M  V30 46 H  19.9946 37.8171 86.5461 0
M  V30 47 H  20.2548 38.4728 84.9374 0
M  V30 48 H  21.7364 37.1565 83.3989 0
M  V30 49 H  21.5405 35.5560 84.0221 0
M  V30 50 H  23.2823 34.5713 82.4412 0
M  V30 51 H  27.5524 35.1847 81.7600 0
M  V30 52 H  29.7701 34.6759 82.0972 0
M  V30 53 H  31.9455 35.3307 82.9651 0
M  V30 54 H  30.1923 38.8646 84.6838 0
M  V30 55 H  28.0202 38.1874 83.8388 0
M  V30 56 H  33.6532 36.7016 82.9086 0
M  V30 57 H  34.2149 38.1906 83.5597 0
M  V30 58 H  35.7233 36.3197 84.2999 0
M  V30 59 H  34.3495 35.4499 85.0257 0
M  V30 60 H  35.4884 35.5567 87.2898 0
M  V30 61 H  36.8692 36.3688 86.4639 0
M  V30 62 H  36.0762 37.1488 87.8788 0
M  V30 63 H  33.7312 37.9611 87.6693 0
M  V30 64 H  33.2085 36.3950 87.0018 0
M  V30 65 H  32.9256 39.1744 85.6401 0
M  V30 66 H  31.6432 38.2053 86.2844 0
M  V30 67 H  35.2983 38.1552 85.8282 0
M  V30 END ATOM
M  V30 BEGIN BOND
M  V30 1 1 1 2
M  V30 2 1 1 35
M  V30 3 1 1 36
M  V30 4 1 1 37
M  V30 5 1 2 3
M  V30 6 1 2 38
M  V30 7 2 3 4
M  V30 8 1 3 5
M  V30 9 2 5 6
M  V30 10 1 5 9
M  V30 11 1 6 7
M  V30 12 1 7 8
M  V30 13 1 7 10
M  V30 14 1 8 39
M  V30 15 1 8 40
M  V30 16 1 8 41
M  V30 17 2 9 10
M  V30 18 1 9 11
M  V30 19 1 10 16
M  V30 20 1 11 12
M  V30 21 1 11 13
M  V30 22 1 11 14
M  V30 23 1 12 42
M  V30 24 1 12 43
M  V30 25 1 12 44
M  V30 26 1 13 45
M  V30 27 1 13 46
M  V30 28 1 13 47
M  V30 29 1 14 15
M  V30 30 1 14 48
M  V30 31 1 14 49
M  V30 32 2 15 16
M  V30 33 1 15 20
M  V30 34 1 16 17
M  V30 35 2 17 18
M  V30 36 1 18 19
M  V30 37 1 18 21
M  V30 38 2 19 20
M  V30 39 1 20 50
M  V30 40 1 21 22
M  V30 41 1 21 51
M  V30 42 2 22 23
M  V30 43 1 22 27
M  V30 44 1 23 24
M  V30 45 1 23 52
M  V30 46 2 24 25
M  V30 47 1 24 53
M  V30 48 1 25 26
M  V30 49 1 25 28
M  V30 50 2 26 27
M  V30 51 1 26 54
M  V30 52 1 27 55
M  V30 53 1 28 29
M  V30 54 1 28 34
M  V30 55 1 29 30
M  V30 56 1 29 56
M  V30 57 1 29 57
M  V30 58 1 30 31
M  V30 59 1 30 58
M  V30 60 1 30 59
M  V30 61 1 31 32
M  V30 62 1 31 33
M  V30 63 1 31 67
M  V30 64 1 32 60
M  V30 65 1 32 61
M  V30 66 1 32 62
M  V30 67 1 33 34
M  V30 68 1 33 63
M  V30 69 1 33 64
M  V30 70 1 34 65
M  V30 71 1 34 66
M  V30 END BOND
M  V30 END CTAB
M  END
> <s_m_entry_id>
719

> <s_m_entry_name>
result.4079

> <s_m_Source_Path>
D:\OneDrive - zju.edu.cn\DOC\A-Finished\LCK_VS\Planet\LCK-8617

> <s_m_Source_File>
glide-dock_SP_top1262_2_pv.maegz

> <i_m_Source_File_Index>
719

> <PLANET_affinity>
7.731

> <i_lp_mmshare_version>
54117

> <i_f3d_flags>
0

> <s_epik_input>
W0NIM11bTkhdQyg9TyljMW5uKFtDSDNdKWMoYzEyKWMzYyhbQ0gyXUMyKFtDSDNdKVtDSDNdKVtjSF1uYyhuMylbTkhdYzRbY0hdW2NIXWMoW2NIXVtjSF00KU41W0NIMl1bQ0gyXU4oW0NIM10pW0NIMl1bQ0gyXTU=

> <s_epik_cmdline>
J2VwaWtfcHl0aG9uJywgJy1waCcsICc3LjAnLCAnLXRuJywgJzgnLCAnLW1hJywgJzUwMCcsICctaW1hZScsICc8aW5maWxlLm1hZT4nLCAnLW9tYWUnLCAnPG91dGZpbGUubWFlPic=

> <r_epik_Ionization_Penalty>
  0.0726

> <r_epik_Ionization_Penalty_Charging>
  0.0647

> <r_epik_Ionization_Penalty_Neutral>
  0.0078

> <r_epik_State_Penalty>
  0.4007

> <r_epik_Charging_Adjusted_Penalty>
0.465418

> <i_epik_Tot_Q>
1

> <i_epik_Tot_abs_Q>
1

> <s_lp_Force_Field>
S-OPLS

> <r_lp_Energy>
60.4338

> <b_lp_Chiralities_Consistent>
1

> <s_lp_Variant>
O=C(NC)C1=NN(C2=C1C(C)(CC3=CN=C(N=C23)NC4=CC=C(C=C4)N5CCN(CC5)C)C)C-1

> <s_i_glide_gridfile>
glide-grid_1

> <i_i_glide_lignum>
1608

> <i_i_glide_rotatable_bonds>
5

> <r_i_docking_score>
-7.77175890351895

> <r_i_glide_ligand_efficiency>
-0.228581144221146

> <r_i_glide_ligand_efficiency_sa>
-0.740514171497893

> <r_i_glide_ligand_efficiency_ln>
-1.71699953224075

> <r_i_glide_gscore>
-8.17245890351895

> <r_i_glide_lipo>
-2.59744806792813

> <r_i_glide_hbond>
-0.546035832289673

> <r_i_glide_metal>
0

> <r_i_glide_rewards>
-1.76619507843187

> <r_i_glide_evdw>
-40.0062255859375

> <r_i_glide_ecoul>
-9.7097749710083

> <r_i_glide_erotb>
0.264643468870152

> <r_i_glide_esite>
-0.070645868791309

> <r_i_glide_emodel>
-78.4429232236724

> <r_i_glide_energy>
-49.7160005569458

> <r_i_glide_einternal>
3.21683406829834

> <i_i_glide_confnum>
8

> <i_i_glide_posenum>
59

> <r_i_glide_eff_state_penalty>
0.4007

> <r_lp_tautomer_probability>
1

> <s_m_subgroup_title>
glide-dock_SP_top1262_2_pv

> <s_m_subgroupid>
glide-dock_SP_top1262_2_pv

> <b_m_subgroup_collapsed>
0

$$$$
O=C(C1=CC=NC=C1)NCC(C)(N2N=C(C3=CC=C(C)C=C3)C4=C(N)N=CN=C42)C
                    3D
 Schrodinger Suite 2021-3.
  0  0  0     0  0            999 V3000
M  V30 BEGIN CTAB
M  V30 COUNTS 53 56 0 0 0
M  V30 BEGIN ATOM
M  V30 1 C  29.6700 36.5902 83.3132 0
M  V30 2 C  30.4204 35.7292 82.5100 0
M  V30 3 N  31.6518 36.0462 82.0436 0
M  V30 4 C  32.1590 37.2603 82.3690 0
M  V30 5 C  31.4736 38.1792 83.1646 0
M  V30 6 C  30.2017 37.8472 83.6572 0
M  V30 7 C  29.4458 38.8375 84.5167 0
M  V30 8 O  29.7729 40.0247 84.5411 0
M  V30 9 N  28.4164 38.3571 85.2401 0
M  V30 10 C  27.5592 39.1428 86.1337 0
M  V30 11 C  26.2819 39.7844 85.4968 0
M  V30 12 C  25.7466 40.8437 86.5071 0
M  V30 13 C  26.5699 40.5392 84.1718 0
M  V30 14 N  25.2652 38.7184 85.2303 0
M  V30 15 C  25.2842 37.6642 84.3195 0
M  V30 16 C  24.0334 37.0081 84.4438 0
M  V30 17 N  26.2434 37.3192 83.4470 0
M  V30 18 C  25.9224 36.2557 82.6667 0
M  V30 19 N  24.7602 35.5584 82.6588 0
M  V30 20 C  23.8058 35.9564 83.5346 0
M  V30 21 N  22.5705 35.3347 83.4360 0
M  V30 22 N  24.0976 38.6982 85.9218 0
M  V30 23 C  23.3524 37.7080 85.4939 0
M  V30 24 C  22.0086 37.4568 86.0972 0
M  V30 25 C  21.1182 38.5177 86.2975 0
M  V30 26 C  19.8626 38.2869 86.8561 0
M  V30 27 C  19.4937 36.9923 87.2261 0
M  V30 28 C  18.1244 36.7256 87.8267 0
M  V30 29 C  20.3805 35.9328 87.0322 0
M  V30 30 C  21.6285 36.1631 86.4593 0
M  V30 31 H  28.6974 36.2690 83.6502 0
M  V30 32 H  30.0416 34.7569 82.2263 0
M  V30 33 H  33.1365 37.4927 81.9725 0
M  V30 34 H  31.9307 39.1333 83.3895 0
M  V30 35 H  28.1893 37.3789 85.1473 0
M  V30 36 H  28.1703 39.9208 86.6004 0
M  V30 37 H  27.2658 38.4949 86.9615 0
M  V30 38 H  26.4723 41.6421 86.6711 0
M  V30 39 H  24.8279 41.3152 86.1518 0
M  V30 40 H  25.5285 40.4027 87.4810 0
M  V30 41 H  27.3300 41.3093 84.3157 0
M  V30 42 H  26.9305 39.8841 83.3805 0
M  V30 43 H  25.6786 41.0391 83.7932 0
M  V30 44 H  26.6741 35.9410 81.9563 0
M  V30 45 H  21.8259 35.6524 84.0341 0
M  V30 46 H  22.4317 34.5990 82.7515 0
M  V30 47 H  21.3981 39.5227 86.0145 0
M  V30 48 H  19.1804 39.1137 86.9975 0
M  V30 49 H  17.5020 37.6228 87.8502 0
M  V30 50 H  18.2259 36.3465 88.8433 0
M  V30 51 H  17.6014 35.9630 87.2458 0
M  V30 52 H  20.1000 34.9279 87.3161 0
M  V30 53 H  22.3055 35.3351 86.3161 0
M  V30 END ATOM
M  V30 BEGIN BOND
M  V30 1 2 1 2
M  V30 2 1 1 6
M  V30 3 1 1 31
M  V30 4 1 2 3
M  V30 5 1 2 32
M  V30 6 2 3 4
M  V30 7 1 4 5
M  V30 8 1 4 33
M  V30 9 2 5 6
M  V30 10 1 5 34
M  V30 11 1 6 7
M  V30 12 2 7 8
M  V30 13 1 7 9
M  V30 14 1 9 10
M  V30 15 1 9 35
M  V30 16 1 10 11
M  V30 17 1 10 36
M  V30 18 1 10 37
M  V30 19 1 11 12
M  V30 20 1 11 13
M  V30 21 1 11 14
M  V30 22 1 12 38
M  V30 23 1 12 39
M  V30 24 1 12 40
M  V30 25 1 13 41
M  V30 26 1 13 42
M  V30 27 1 13 43
M  V30 28 1 14 15
M  V30 29 1 14 22
M  V30 30 1 15 16
M  V30 31 2 15 17
M  V30 32 1 16 23
M  V30 33 2 16 20
M  V30 34 1 17 18
M  V30 35 2 18 19
M  V30 36 1 18 44
M  V30 37 1 19 20
M  V30 38 1 20 21
M  V30 39 1 21 45
M  V30 40 1 21 46
M  V30 41 2 22 23
M  V30 42 1 23 24
M  V30 43 2 24 25
M  V30 44 1 24 30
M  V30 45 1 25 26
M  V30 46 1 25 47
M  V30 47 2 26 27
M  V30 48 1 26 48
M  V30 49 1 27 28
M  V30 50 1 27 29
M  V30 51 1 28 49
M  V30 52 1 28 50
M  V30 53 1 28 51
M  V30 54 2 29 30
M  V30 55 1 29 52
M  V30 56 1 30 53
M  V30 END BOND
M  V30 END CTAB
M  END
> <s_m_entry_id>
722

> <s_m_entry_name>
result.4136

> <s_m_Source_Path>
D:\OneDrive - zju.edu.cn\DOC\A-Finished\LCK_VS\Planet\LCK-8617

> <s_m_Source_File>
glide-dock_SP_top1262_2_pv.maegz

> <i_m_Source_File_Index>
722

> <PLANET_affinity>
8.285

> <i_lp_mmshare_version>
54117

> <i_f3d_flags>
0

> <s_epik_input>
W2NIXTFbY0hdbltjSF1bY0hdYzFDKD1PKVtOSF1bQ0gyXUMoW0NIM10pKFtDSDNdKW4ybmMoYyhjMjMpYyhbTkgyXSluW2NIXW4zKS1jNFtjSF1bY0hdYyhbQ0gzXSlbY0hdW2NIXTQ=

> <s_epik_cmdline>
J2VwaWtfcHl0aG9uJywgJy1waCcsICc3LjAnLCAnLXRuJywgJzgnLCAnLW1hJywgJzUwMCcsICctaW1hZScsICc8aW5maWxlLm1hZT4nLCAnLW9tYWUnLCAnPG91dGZpbGUubWFlPic=

> <r_epik_Ionization_Penalty>
  0.0015

> <r_epik_Ionization_Penalty_Charging>
  0.0000

> <r_epik_Ionization_Penalty_Neutral>
  0.0015

> <r_epik_State_Penalty>
  0.0009

> <r_epik_Charging_Adjusted_Penalty>
0.000913127

> <i_epik_Tot_Q>
0

> <i_epik_Tot_abs_Q>
0

> <s_lp_Force_Field>
S-OPLS

> <r_lp_Energy>
34.5118

> <b_lp_Chiralities_Consistent>
1

> <s_lp_Variant>
O=C(C1=CC=NC=C1)NCC(C)(N2N=C(C3=CC=C(C)C=C3)C4=C(N)N=CN=C42)C-1

> <s_i_glide_gridfile>
glide-grid_1

> <i_i_glide_lignum>
981

> <i_i_glide_rotatable_bonds>
6

> <r_i_docking_score>
-7.76928078613387

> <r_i_glide_ligand_efficiency>
-0.258976026204462

> <r_i_glide_ligand_efficiency_sa>
-0.804698725972951

> <r_i_glide_ligand_efficiency_ln>
-1.76526524770396

> <r_i_glide_gscore>
-7.77018078613387

> <r_i_glide_lipo>
-3.12661274188475

> <r_i_glide_hbond>
-0.302943955035858

> <r_i_glide_metal>
0

> <r_i_glide_rewards>
-2.3281213568997

> <r_i_glide_evdw>
-42.8977241516113

> <r_i_glide_ecoul>
-3.17400288581848

> <r_i_glide_erotb>
0.608483908139778

> <r_i_glide_esite>
0

> <r_i_glide_emodel>
-68.2699315315907

> <r_i_glide_energy>
-46.0717270374298

> <r_i_glide_einternal>
1.60994625091553

> <i_i_glide_confnum>
88

> <i_i_glide_posenum>
108

> <r_i_glide_eff_state_penalty>
0.0009

> <s_m_subgroup_title>
glide-dock_SP_top1262_2_pv

> <s_m_subgroupid>
glide-dock_SP_top1262_2_pv

> <b_m_subgroup_collapsed>
0

$$$$
O=C1/C(C2=CC(F)=CC=C2N1)=C/C(NC(C)=C3C(N[C@@H]4CN(C(N(C)C)=O)CC4)=O)=C3C
                    3D
 Schrodinger Suite 2021-3.
  0  0  0     0  0            999 V3000
M  V30 BEGIN CTAB
M  V30 COUNTS 58 61 0 0 0
M  V30 BEGIN ATOM
M  V30 1 C  20.2137 36.2618 86.6835 0
M  V30 2 C  19.7011 35.7186 87.8489 0
M  V30 3 F  20.3622 34.7025 88.4403 0
M  V30 4 C  18.4821 36.1728 88.3526 0
M  V30 5 C  17.7242 37.1242 87.6641 0
M  V30 6 C  18.1971 37.5570 86.4323 0
M  V30 7 C  19.4188 37.1433 85.9579 0
M  V30 8 N  17.5784 38.2946 85.4552 0
M  V30 9 C  18.2872 38.3004 84.3142 0
M  V30 10 O  17.9022 38.7566 83.2434 0
M  V30 11 C  19.5531 37.6661 84.6278 0
M  V30 12 C  20.5729 37.5699 83.7609 0
M  V30 13 C  21.9028 37.0536 84.0415 0
M  V30 14 N  22.4261 36.0293 83.2937 0
M  V30 15 C  23.7777 35.9431 83.4999 0
M  V30 16 C  24.6083 34.9957 82.6647 0
M  V30 17 C  24.1041 36.8957 84.4732 0
M  V30 18 C  22.9001 37.5184 84.8955 0
M  V30 19 C  22.7373 38.6370 85.9106 0
M  V30 20 C  25.4073 37.1545 85.0385 0
M  V30 21 O  25.5244 37.5006 86.2159 0
M  V30 22 N  26.4636 36.9877 84.2121 0
M  V30 23 C  27.8422 37.1792 84.6769 0 CFG=2
M  V30 24 C  28.3058 38.6318 84.6952 0
M  V30 25 N  29.1804 38.7259 83.5262 0
M  V30 26 C  29.4830 37.4117 82.9212 0
M  V30 27 C  28.9118 36.4236 83.9124 0
M  V30 28 C  29.8012 39.9004 83.2436 0
M  V30 29 O  29.1634 40.9560 83.2874 0
M  V30 30 N  31.1020 39.8660 82.8487 0
M  V30 31 C  32.1209 38.9851 83.4279 0
M  V30 32 C  31.6561 40.8843 81.9613 0
M  V30 33 H  21.1480 35.8787 86.3042 0
M  V30 34 H  18.0828 35.7336 89.2439 0
M  V30 35 H  16.7593 37.4326 88.0417 0
M  V30 36 H  16.6531 38.6873 85.5388 0
M  V30 37 H  20.4488 37.9562 82.7620 0
M  V30 38 H  21.9206 35.4988 82.5970 0
M  V30 39 H  25.2650 35.5441 81.9896 0
M  V30 40 H  25.2452 34.3559 83.2733 0
M  V30 41 H  23.9822 34.3581 82.0429 0
M  V30 42 H  22.6467 38.2482 86.9249 0
M  V30 43 H  23.5918 39.3145 85.9081 0
M  V30 44 H  21.8682 39.2634 85.7078 0
M  V30 45 H  26.3054 36.9586 83.2170 0
M  V30 46 H  27.8721 36.7568 85.6643 0
M  V30 47 H  27.4799 39.3457 84.7009 0
M  V30 48 H  28.9115 38.7957 85.5887 0
M  V30 49 H  30.5351 37.1818 82.7627 0
M  V30 50 H  28.8860 37.2162 82.0434 0
M  V30 51 H  29.7092 36.1608 84.6028 0
M  V30 52 H  28.5819 35.4893 83.4581 0
M  V30 53 H  31.7190 38.3118 84.1860 0
M  V30 54 H  32.5921 38.3856 82.6483 0
M  V30 55 H  32.8975 39.5800 83.9104 0
M  V30 56 H  30.8824 41.5559 81.5908 0
M  V30 57 H  32.3907 41.4933 82.4902 0
M  V30 58 H  32.1460 40.4224 81.1037 0
M  V30 END ATOM
M  V30 BEGIN BOND
M  V30 1 2 1 2
M  V30 2 1 1 7
M  V30 3 1 1 33
M  V30 4 1 2 3
M  V30 5 1 2 4
M  V30 6 2 4 5
M  V30 7 1 4 34
M  V30 8 1 5 6
M  V30 9 1 5 35
M  V30 10 2 6 7
M  V30 11 1 6 8
M  V30 12 1 7 11
M  V30 13 1 8 9
M  V30 14 1 8 36
M  V30 15 2 9 10
M  V30 16 1 9 11
M  V30 17 2 11 12
M  V30 18 1 12 13
M  V30 19 1 12 37
M  V30 20 1 13 14
M  V30 21 2 13 18
M  V30 22 1 14 15
M  V30 23 1 14 38
M  V30 24 1 15 16
M  V30 25 2 15 17
M  V30 26 1 16 39
M  V30 27 1 16 40
M  V30 28 1 16 41
M  V30 29 1 17 18
M  V30 30 1 17 20
M  V30 31 1 18 19
M  V30 32 1 19 42
M  V30 33 1 19 43
M  V30 34 1 19 44
M  V30 35 2 20 21
M  V30 36 1 20 22
M  V30 37 1 22 23
M  V30 38 1 22 45
M  V30 39 1 23 24
M  V30 40 1 23 27
M  V30 41 1 23 46
M  V30 42 1 24 25
M  V30 43 1 24 47
M  V30 44 1 24 48
M  V30 45 1 25 26
M  V30 46 1 25 28
M  V30 47 1 26 27
M  V30 48 1 26 49
M  V30 49 1 26 50
M  V30 50 1 27 51
M  V30 51 1 27 52
M  V30 52 2 28 29
M  V30 53 1 28 30
M  V30 54 1 30 31
M  V30 55 1 30 32
M  V30 56 1 31 53
M  V30 57 1 31 54
M  V30 58 1 31 55
M  V30 59 1 32 56
M  V30 60 1 32 57
M  V30 61 1 32 58
M  V30 END BOND
M  V30 END CTAB
M  END
> <s_m_entry_id>
723

> <s_m_entry_name>
result.2285

> <s_m_Source_Path>
D:\OneDrive - zju.edu.cn\DOC\A-Finished\LCK_VS\Planet\LCK-8617

> <s_m_Source_File>
glide-dock_SP_top1262_2_pv.maegz

> <i_m_Source_File_Index>
723

> <PLANET_affinity>
7.326

> <i_lp_mmshare_version>
54117

> <i_f3d_flags>
0

> <s_epik_input>
W2NIXTFbY0hdYyhGKVtjSF1jKGMxMikvQyhDKD1PKVtOSF0yKT1bQ0hdXGMzW25IXWMoW0NIM10pYyhjM1tDSDNdKUMoPU8pW05IXVtDQEBIXTRbQ0gyXU4oW0NIMl1bQ0gyXTQpQyg9TylOKFtDSDNdKVtDSDNd

> <s_epik_cmdline>
J2VwaWtfcHl0aG9uJywgJy1waCcsICc3LjAnLCAnLXRuJywgJzgnLCAnLW1hJywgJzUwMCcsICctaW1hZScsICc8aW5maWxlLm1hZT4nLCAnLW9tYWUnLCAnPG91dGZpbGUubWFlPic=

> <r_epik_Ionization_Penalty>
  0.0001

> <r_epik_Ionization_Penalty_Charging>
  0.0000

> <r_epik_Ionization_Penalty_Neutral>
  0.0001

> <r_epik_State_Penalty>
  0.0000

> <r_epik_Charging_Adjusted_Penalty>
0

> <i_epik_Tot_Q>
0

> <i_epik_Tot_abs_Q>
0

> <s_lp_Force_Field>
S-OPLS

> <r_lp_Energy>
34.0571

> <b_lp_Chiralities_Consistent>
1

> <s_lp_Variant>
O=C1/C(C2=CC(F)=CC=C2N1)=C/C(NC(C)=C3C(N[C@@H]4CN(C(N(C)C)=O)CC4)=O)=C3C-1

> <s_i_glide_gridfile>
glide-grid_1

> <i_i_glide_lignum>
2199

> <i_i_glide_rotatable_bonds>
6

> <r_i_docking_score>
-7.76773191930579

> <r_i_glide_ligand_efficiency>
-0.242741622478306

> <r_i_glide_ligand_efficiency_sa>
-0.770656612866764

> <r_i_glide_ligand_efficiency_ln>
-1.73940691710764

> <r_i_glide_gscore>
-7.76773191930579

> <r_i_glide_lipo>
-3.32233303003081

> <r_i_glide_hbond>
-0.539139228515821

> <r_i_glide_metal>
0

> <r_i_glide_rewards>
-1.70661536116167

> <r_i_glide_evdw>
-35.741828918457

> <r_i_glide_ecoul>
-5.88046503067017

> <r_i_glide_erotb>
0.51667432949203

> <r_i_glide_esite>
-0.0471574285661417

> <r_i_glide_emodel>
-55.7797941463328

> <r_i_glide_energy>
-41.6222939491272

> <r_i_glide_einternal>
11.8184509277344

> <i_i_glide_confnum>
116

> <i_i_glide_posenum>
24

> <r_i_glide_eff_state_penalty>
0

> <r_lp_tautomer_probability>
1

> <s_m_subgroup_title>
glide-dock_SP_top1262_2_pv

> <s_m_subgroupid>
glide-dock_SP_top1262_2_pv

> <b_m_subgroup_collapsed>
0

$$$$
O=C1C2=C(NC(C3=CC(C4=CC5=CC=CC=C5N=C4)=NC=C3)=C2)CCN1
                    3D
 Schrodinger Suite 2021-3.
  0  0  0     0  0            999 V3000
M  V30 BEGIN CTAB
M  V30 COUNTS 42 46 0 0 0
M  V30 BEGIN ATOM
M  V30 1 O  18.6633 36.2804 87.9192 0
M  V30 2 C  19.1385 37.2760 87.3816 0
M  V30 3 N  18.5601 38.4895 87.5809 0
M  V30 4 C  18.8960 39.7307 86.8436 0
M  V30 5 C  20.4302 39.9139 86.7056 0
M  V30 6 C  20.9853 38.5705 86.3103 0
M  V30 7 C  20.3305 37.3721 86.5612 0
M  V30 8 N  22.0700 38.3294 85.5152 0
M  V30 9 C  22.1873 36.9812 85.2911 0
M  V30 10 C  21.1483 36.3759 85.9971 0
M  V30 11 C  23.2209 36.4302 84.3847 0
M  V30 12 C  24.5613 36.8300 84.4679 0
M  V30 13 C  25.4798 36.3719 83.5078 0
M  V30 14 N  25.0870 35.5408 82.5010 0
M  V30 15 C  23.7911 35.1567 82.4434 0
M  V30 16 C  22.8339 35.5575 83.3667 0
M  V30 17 C  26.9288 36.7535 83.5209 0
M  V30 18 C  27.8973 35.9954 82.8434 0
M  V30 19 C  27.3846 37.8830 84.2140 0
M  V30 20 N  28.6805 38.2719 84.2857 0
M  V30 21 C  29.6149 37.5244 83.6412 0
M  V30 22 C  29.2619 36.3633 82.8920 0
M  V30 23 C  30.9721 37.9189 83.7083 0
M  V30 24 C  31.9463 37.1778 83.0427 0
M  V30 25 C  31.6012 36.0461 82.3107 0
M  V30 26 C  30.2741 35.6319 82.2292 0
M  V30 27 H  17.7430 38.5093 88.1771 0
M  V30 28 H  18.4213 39.6896 85.8623 0
M  V30 29 H  18.4828 40.5947 87.3636 0
M  V30 30 H  20.6625 40.6975 85.9835 0
M  V30 31 H  20.8575 40.2394 87.6535 0
M  V30 32 H  22.6679 39.0388 85.1175 0
M  V30 33 H  20.9642 35.3114 86.0472 0
M  V30 34 H  24.8674 37.4879 85.2654 0
M  V30 35 H  23.5197 34.4951 81.6389 0
M  V30 36 H  21.8093 35.2304 83.2593 0
M  V30 37 H  27.6267 35.1123 82.2813 0
M  V30 38 H  26.7023 38.5326 84.7371 0
M  V30 39 H  31.2448 38.8000 84.2725 0
M  V30 40 H  32.9812 37.4847 83.0913 0
M  V30 41 H  32.3659 35.4840 81.7946 0
M  V30 42 H  30.0122 34.7568 81.6518 0
M  V30 END ATOM
M  V30 BEGIN BOND
M  V30 1 2 1 2
M  V30 2 1 2 3
M  V30 3 1 2 7
M  V30 4 1 3 4
M  V30 5 1 3 27
M  V30 6 1 4 5
M  V30 7 1 4 28
M  V30 8 1 4 29
M  V30 9 1 5 6
M  V30 10 1 5 30
M  V30 11 1 5 31
M  V30 12 2 6 7
M  V30 13 1 6 8
M  V30 14 1 7 10
M  V30 15 1 8 9
M  V30 16 1 8 32
M  V30 17 2 9 10
M  V30 18 1 9 11
M  V30 19 1 10 33
M  V30 20 2 11 12
M  V30 21 1 11 16
M  V30 22 1 12 13
M  V30 23 1 12 34
M  V30 24 2 13 14
M  V30 25 1 13 17
M  V30 26 1 14 15
M  V30 27 2 15 16
M  V30 28 1 15 35
M  V30 29 1 16 36
M  V30 30 2 17 18
M  V30 31 1 17 19
M  V30 32 1 18 22
M  V30 33 1 18 37
M  V30 34 2 19 20
M  V30 35 1 19 38
M  V30 36 1 20 21
M  V30 37 2 21 22
M  V30 38 1 21 23
M  V30 39 1 22 26
M  V30 40 2 23 24
M  V30 41 1 23 39
M  V30 42 1 24 25
M  V30 43 1 24 40
M  V30 44 2 25 26
M  V30 45 1 25 41
M  V30 46 1 26 42
M  V30 END BOND
M  V30 END CTAB
M  END
> <s_m_entry_id>
726

> <s_m_entry_name>
result.6666

> <s_m_Source_Path>
D:\OneDrive - zju.edu.cn\DOC\A-Finished\LCK_VS\Planet\LCK-8617

> <s_m_Source_File>
glide-dock_SP_top1262_2_pv.maegz

> <i_m_Source_File_Index>
726

> <PLANET_affinity>
7.258

> <i_lp_mmshare_version>
54117

> <i_f3d_flags>
0

> <s_epik_input>
W0NIMl0xW0NIMl1bTkhdQyg9TyljKGMxMilbY0hdYyhbbkhdMiktYzNbY0hdYyhuW2NIXVtjSF0zKS1jKFtjSF1uNClbY0hdYyhjNDUpW2NIXVtjSF1bY0hdW2NIXTU=

> <s_epik_cmdline>
J2VwaWtfcHl0aG9uJywgJy1waCcsICc3LjAnLCAnLXRuJywgJzgnLCAnLW1hJywgJzUwMCcsICctaW1hZScsICc8aW5maWxlLm1hZT4nLCAnLW9tYWUnLCAnPG91dGZpbGUubWFlPic=

> <r_epik_Ionization_Penalty>
  0.0016

> <r_epik_Ionization_Penalty_Charging>
  0.0000

> <r_epik_Ionization_Penalty_Neutral>
  0.0016

> <r_epik_State_Penalty>
  0.0010

> <r_epik_Charging_Adjusted_Penalty>
0.000967184

> <i_epik_Tot_Q>
0

> <i_epik_Tot_abs_Q>
0

> <s_lp_Force_Field>
S-OPLS

> <r_lp_Energy>
44.6455

> <b_lp_Chiralities_Consistent>
1

> <s_lp_Variant>
O=C1C2=C(NC(C3=CC(C4=CC5=CC=CC=C5N=C4)=NC=C3)=C2)CCN1-1

> <s_i_glide_gridfile>
glide-grid_1

> <i_i_glide_lignum>
2301

> <i_i_glide_rotatable_bonds>
2

> <r_i_docking_score>
-7.76750805588261

> <r_i_glide_ligand_efficiency>
-0.298750309841639

> <r_i_glide_ligand_efficiency_sa>
-0.885046617380149

> <r_i_glide_ligand_efficiency_ln>
-1.82417377965126

> <r_i_glide_gscore>
-7.76850805588261

> <r_i_glide_lipo>
-3.04598661110535

> <r_i_glide_hbond>
-0.0703757120753019

> <r_i_glide_metal>
0

> <r_i_glide_rewards>
-2.2993491660518

> <r_i_glide_evdw>
-43.4198417663574

> <r_i_glide_ecoul>
-3.16871213912964

> <r_i_glide_erotb>
0.326895633001021

> <r_i_glide_esite>
-0.0333932904638625

> <r_i_glide_emodel>
-66.8941343534163

> <r_i_glide_energy>
-46.5885539054871

> <r_i_glide_einternal>
1.93500161170959

> <i_i_glide_confnum>
2

> <i_i_glide_posenum>
386

> <r_i_glide_eff_state_penalty>
0.001

> <s_m_subgroup_title>
glide-dock_SP_top1262_2_pv

> <s_m_subgroupid>
glide-dock_SP_top1262_2_pv

> <b_m_subgroup_collapsed>
0

$$$$
ClC1=CN=C(NC2=CC=C(N3CCN(C(C)=O)CC3)C=C2OC)N=C1NC4=CC=C(N5CCN(C(C)=O)CC5)C=C4OC
                    3D
 Schrodinger Suite 2021-3.
  0  0  0     0  0            999 V3000
M  V30 BEGIN CTAB
M  V30 COUNTS 80 84 0 0 0
M  V30 BEGIN ATOM
M  V30 1 C  17.7896 38.6076 87.0361 0
M  V30 2 C  18.6846 37.3968 87.2568 0
M  V30 3 O  18.1519 36.3566 87.6441 0
M  V30 4 N  20.0113 37.4989 86.9957 0
M  V30 5 C  20.6662 38.7492 86.5768 0
M  V30 6 C  21.2566 38.5280 85.1688 0
M  V30 7 C  20.8652 36.3020 86.9989 0
M  V30 8 C  21.4380 36.1428 85.5722 0
M  V30 9 N  22.1200 37.3392 85.0578 0
M  V30 10 C  23.4955 37.3874 84.8419 0
M  V30 11 C  24.1737 36.2658 84.3512 0
M  V30 12 C  25.5410 36.2954 84.0867 0
M  V30 13 O  26.1179 35.1309 83.6446 0
M  V30 14 C  26.4614 35.1239 82.2701 0
M  V30 15 C  24.2374 38.5577 85.0496 0
M  V30 16 C  25.6061 38.5968 84.7928 0
M  V30 17 C  26.2858 37.4612 84.3342 0
M  V30 18 N  27.6788 37.4543 84.0992 0
M  V30 19 C  28.7190 38.2919 84.5193 0
M  V30 20 N  29.9415 38.0480 83.9819 0
M  V30 21 C  30.9705 38.8067 84.4459 0
M  V30 22 C  30.8049 39.7750 85.4390 0
M  V30 23 Cl 32.1613 40.6829 86.0115 0
M  V30 24 N  28.4720 39.2146 85.4792 0
M  V30 25 C  29.5072 39.9535 85.9479 0
M  V30 26 N  29.2778 40.8486 87.0055 0
M  V30 27 C  28.2903 40.9397 88.0071 0
M  V30 28 C  27.1467 40.1262 88.0424 0
M  V30 29 C  26.2230 40.2311 89.0781 0
M  V30 30 C  26.4171 41.1299 90.1304 0
M  V30 31 C  27.5501 41.9576 90.0905 0
M  V30 32 C  28.4765 41.8653 89.0500 0
M  V30 33 O  29.5723 42.6953 89.0814 0
M  V30 34 C  30.7155 42.1229 89.7027 0
M  V30 35 N  25.5180 41.1567 91.1896 0
M  V30 36 C  25.8964 41.6406 92.5264 0
M  V30 37 C  24.9952 41.1219 93.6679 0
M  V30 38 N  23.5984 41.4151 93.3267 0
M  V30 39 C  22.8581 42.2497 94.0950 0
M  V30 40 O  23.2829 42.7623 95.1361 0
M  V30 41 C  21.4097 42.5434 93.6924 0
M  V30 42 C  23.1264 40.8335 92.0642 0
M  V30 43 C  24.0712 41.2710 90.9207 0
M  V30 44 H  18.0834 39.4193 87.6987 0
M  V30 45 H  17.8406 38.9515 86.0034 0
M  V30 46 H  16.7499 38.3562 87.2433 0
M  V30 47 H  21.4696 38.9891 87.2744 0
M  V30 48 H  20.0047 39.6151 86.5641 0
M  V30 49 H  21.7607 39.4346 84.8364 0
M  V30 50 H  20.4434 38.3740 84.4586 0
M  V30 51 H  20.3252 35.3940 87.2798 0
M  V30 52 H  21.6790 36.4236 87.7164 0
M  V30 53 H  20.6276 35.9575 84.8688 0
M  V30 54 H  22.0790 35.2635 85.5653 0
M  V30 55 H  23.6390 35.3534 84.1348 0
M  V30 56 H  26.8629 34.1447 82.0126 0
M  V30 57 H  25.5888 35.3164 81.6436 0
M  V30 58 H  27.2263 35.8627 82.0434 0
M  V30 59 H  23.7706 39.4549 85.4236 0
M  V30 60 H  26.1125 39.5352 84.9487 0
M  V30 61 H  28.0034 36.6546 83.5768 0
M  V30 62 H  31.9475 38.6139 84.0234 0
M  V30 63 H  30.0715 41.4495 87.1859 0
M  V30 64 H  26.9461 39.3801 87.2949 0
M  V30 65 H  25.3718 39.5654 89.0823 0
M  V30 66 H  27.7289 42.6757 90.8752 0
M  V30 67 H  31.5576 42.8085 89.6048 0
M  V30 68 H  30.5441 41.9584 90.7682 0
M  V30 69 H  31.0046 41.1733 89.2465 0
M  V30 70 H  26.9356 41.3891 92.7407 0
M  V30 71 H  25.8072 42.7282 92.4991 0
M  V30 72 H  25.2839 41.5553 94.6248 0
M  V30 73 H  25.1216 40.0433 93.7704 0
M  V30 74 H  21.3762 43.0836 92.7465 0
M  V30 75 H  20.9168 43.1581 94.4416 0
M  V30 76 H  20.8404 41.6189 93.6025 0
M  V30 77 H  23.1467 39.7499 92.1629 0
M  V30 78 H  22.1052 41.1052 91.8021 0
M  V30 79 H  23.7884 40.7677 89.9958 0
M  V30 80 H  23.9061 42.3406 90.7746 0
M  V30 END ATOM
M  V30 BEGIN BOND
M  V30 1 1 1 2
M  V30 2 1 1 44
M  V30 3 1 1 45
M  V30 4 1 1 46
M  V30 5 2 2 3
M  V30 6 1 2 4
M  V30 7 1 4 5
M  V30 8 1 4 7
M  V30 9 1 5 6
M  V30 10 1 5 47
M  V30 11 1 5 48
M  V30 12 1 6 9
M  V30 13 1 6 49
M  V30 14 1 6 50
M  V30 15 1 7 8
M  V30 16 1 7 51
M  V30 17 1 7 52
M  V30 18 1 8 9
M  V30 19 1 8 53
M  V30 20 1 8 54
M  V30 21 1 9 10
M  V30 22 2 10 11
M  V30 23 1 10 15
M  V30 24 1 11 12
M  V30 25 1 11 55
M  V30 26 1 12 13
M  V30 27 2 12 17
M  V30 28 1 13 14
M  V30 29 1 14 56
M  V30 30 1 14 57
M  V30 31 1 14 58
M  V30 32 2 15 16
M  V30 33 1 15 59
M  V30 34 1 16 17
M  V30 35 1 16 60
M  V30 36 1 17 18
M  V30 37 1 18 19
M  V30 38 1 18 61
M  V30 39 2 19 20
M  V30 40 1 19 24
M  V30 41 1 20 21
M  V30 42 2 21 22
M  V30 43 1 21 62
M  V30 44 1 22 23
M  V30 45 1 22 25
M  V30 46 2 24 25
M  V30 47 1 25 26
M  V30 48 1 26 27
M  V30 49 1 26 63
M  V30 50 2 27 28
M  V30 51 1 27 32
M  V30 52 1 28 29
M  V30 53 1 28 64
M  V30 54 2 29 30
M  V30 55 1 29 65
M  V30 56 1 30 31
M  V30 57 1 30 35
M  V30 58 2 31 32
M  V30 59 1 31 66
M  V30 60 1 32 33
M  V30 61 1 33 34
M  V30 62 1 34 67
M  V30 63 1 34 68
M  V30 64 1 34 69
M  V30 65 1 35 36
M  V30 66 1 35 43
M  V30 67 1 36 37
M  V30 68 1 36 70
M  V30 69 1 36 71
M  V30 70 1 37 38
M  V30 71 1 37 72
M  V30 72 1 37 73
M  V30 73 1 38 39
M  V30 74 1 38 42
M  V30 75 2 39 40
M  V30 76 1 39 41
M  V30 77 1 41 74
M  V30 78 1 41 75
M  V30 79 1 41 76
M  V30 80 1 42 43
M  V30 81 1 42 77
M  V30 82 1 42 78
M  V30 83 1 43 79
M  V30 84 1 43 80
M  V30 END BOND
M  V30 END CTAB
M  END
> <s_m_entry_id>
727

> <s_m_entry_name>
result.860

> <s_m_Source_Path>
D:\OneDrive - zju.edu.cn\DOC\A-Finished\LCK_VS\Planet\LCK-8617

> <s_m_Source_File>
glide-dock_SP_top1262_2_pv.maegz

> <i_m_Source_File_Index>
727

> <PLANET_affinity>
8.726

> <i_lp_mmshare_version>
54117

> <i_f3d_flags>
0

> <s_epik_input>
W0NIM11DKD1PKU4xW0NIMl1bQ0gyXU4oW0NIMl1bQ0gyXTEpYzJbY0hdYyhPW0NIM10pYyhbY0hdW2NIXTIpW05IXWMzbltjSF1jKENsKWMobjMpW05IXWM0W2NIXVtjSF1jKFtjSF1jNE9bQ0gzXSlONVtDSDJdW0NIMl1OKEMoPU8pW0NIM10pW0NIMl1bQ0gyXTU=

> <s_epik_cmdline>
J2VwaWtfcHl0aG9uJywgJy1waCcsICc3LjAnLCAnLXRuJywgJzgnLCAnLW1hJywgJzUwMCcsICctaW1hZScsICc8aW5maWxlLm1hZT4nLCAnLW9tYWUnLCAnPG91dGZpbGUubWFlPic=

> <r_epik_Ionization_Penalty>
  0.0257

> <r_epik_Ionization_Penalty_Charging>
  0.0000

> <r_epik_Ionization_Penalty_Neutral>
  0.0257

> <r_epik_State_Penalty>
  0.0195

> <r_epik_Charging_Adjusted_Penalty>
0.0195391

> <i_epik_Tot_Q>
0

> <i_epik_Tot_abs_Q>
0

> <s_lp_Force_Field>
S-OPLS

> <r_lp_Energy>
101.443

> <b_lp_Chiralities_Consistent>
1

> <s_lp_Variant>
ClC1=CN=C(NC2=CC=C(N3CCN(C(C)=O)CC3)C=C2OC)N=C1NC4=CC=C(N5CCN(C(C)=O)CC5)C=C4OC-1

> <s_i_glide_gridfile>
glide-grid_1

> <i_i_glide_lignum>
654

> <i_i_glide_rotatable_bonds>
10

> <r_i_docking_score>
-7.76260158456598

> <r_i_glide_ligand_efficiency>
-0.18052561824572

> <r_i_glide_ligand_efficiency_sa>
-0.632453100019244

> <r_i_glide_ligand_efficiency_ln>
-1.63038759051093

> <r_i_glide_gscore>
-7.78210158456598

> <r_i_glide_lipo>
-3.03521639661213

> <r_i_glide_hbond>
-0.134197887483432

> <r_i_glide_metal>
0

> <r_i_glide_rewards>
-1.70027732786415

> <r_i_glide_evdw>
-55.0614738464355

> <r_i_glide_ecoul>
-2.44895935058594

> <r_i_glide_erotb>
0.216540265712736

> <r_i_glide_esite>
-0.00853264340933965

> <r_i_glide_emodel>
-75.9530024877929

> <r_i_glide_energy>
-57.5104331970215

> <r_i_glide_einternal>
16.2523403167725

> <i_i_glide_confnum>
412

> <i_i_glide_posenum>
371

> <r_i_glide_eff_state_penalty>
0.0195

> <r_lp_tautomer_probability>
1

> <s_m_subgroup_title>
glide-dock_SP_top1262_2_pv

> <s_m_subgroupid>
glide-dock_SP_top1262_2_pv

> <b_m_subgroup_collapsed>
0

$$$$
O=C(C1=CC=NC2=CC=CC=C12)N[C@@H]3C[C@@H](CC4=CC=C(Cl)C=C4)N(C(C5=CC(C(F)(F)F)=...
                    3D
 Schrodinger Suite 2021-3.
  0  0  0     0  0            999 V3000
M  V30 BEGIN CTAB
M  V30 COUNTS 67 71 0 0 0
M  V30 BEGIN ATOM
M  V30 1 C  19.3378 35.9566 87.5878 0
M  V30 2 C  20.4260 35.0948 87.6475 0
M  V30 3 C  21.6810 35.5160 87.2436 0
M  V30 4 C  21.8713 36.7926 86.7251 0
M  V30 5 C  20.7671 37.6822 86.5727 0
M  V30 6 C  19.4773 37.2300 87.0006 0
M  V30 7 C  20.8486 38.9950 85.9955 0
M  V30 8 C  19.6663 39.7118 85.7959 0
M  V30 9 C  18.4607 39.1602 86.2136 0
M  V30 10 N  18.3523 37.9666 86.8307 0
M  V30 11 C  22.1484 39.6054 85.5610 0
M  V30 12 O  22.3275 39.9114 84.3830 0
M  V30 13 N  23.0536 39.7521 86.5475 0
M  V30 14 C  24.4640 40.1233 86.4201 0 CFG=2
M  V30 15 C  24.8409 41.2667 85.4436 0
M  V30 16 C  26.3565 41.5947 85.3032 0 CFG=1
M  V30 17 C  26.9579 42.5055 86.4070 0
M  V30 18 C  26.2530 43.8401 86.6708 0
M  V30 19 C  26.3620 44.4107 87.9427 0
M  V30 20 C  25.7177 45.6106 88.2346 0
M  V30 21 C  24.9588 46.2418 87.2534 0
M  V30 22 Cl 24.1463 47.7213 87.6129 0
M  V30 23 C  24.8501 45.6888 85.9812 0
M  V30 24 C  25.5146 44.5014 85.6807 0
M  V30 25 N  27.0386 40.2902 85.1256 0
M  V30 26 C  26.9014 39.3096 86.2226 0
M  V30 27 C  25.4176 38.9188 86.3576 0
M  V30 28 C  27.8376 40.0582 84.0446 0
M  V30 29 O  28.2445 40.9457 83.2928 0
M  V30 30 C  28.1421 38.6301 83.6828 0
M  V30 31 C  29.4601 38.2050 83.4919 0
M  V30 32 C  29.7324 36.8993 83.0640 0
M  V30 33 C  31.1806 36.4813 82.8250 0
M  V30 34 F  31.9796 36.9783 83.7720 0
M  V30 35 F  31.3258 35.1562 82.8182 0
M  V30 36 F  31.5758 36.9545 81.6431 0
M  V30 37 C  28.6680 36.0092 82.8447 0
M  V30 38 C  27.3454 36.4183 83.0602 0
M  V30 39 C  26.1579 35.4799 82.8727 0
M  V30 40 F  25.6737 35.1580 84.0699 0
M  V30 41 F  25.1937 36.0769 82.1715 0
M  V30 42 F  26.4834 34.3574 82.2466 0
M  V30 43 C  27.0951 37.7322 83.4588 0
M  V30 44 H  18.3644 35.6215 87.9142 0
M  V30 45 H  20.3008 34.0981 88.0436 0
M  V30 46 H  22.5006 34.8280 87.3312 0
M  V30 47 H  22.8577 37.0827 86.3988 0
M  V30 48 H  19.6835 40.6910 85.3373 0
M  V30 49 H  17.5344 39.6963 86.0771 0
M  V30 50 H  22.7703 39.4250 87.4605 0
M  V30 51 H  24.6750 40.6079 87.3766 0
M  V30 52 H  24.5454 40.9562 84.4434 0
M  V30 53 H  24.2476 42.1548 85.6517 0
M  V30 54 H  26.4485 42.1592 84.3744 0
M  V30 55 H  26.9772 41.9515 87.3455 0
M  V30 56 H  28.0001 42.7235 86.1630 0
M  V30 57 H  26.9381 43.9218 88.7142 0
M  V30 58 H  25.8019 46.0456 89.2193 0
M  V30 59 H  24.2465 46.1778 85.2298 0
M  V30 60 H  25.4217 44.1002 84.6833 0
M  V30 61 H  27.2268 39.8022 87.1396 0
M  V30 62 H  27.5558 38.4413 86.1237 0
M  V30 63 H  25.2996 38.2957 87.2447 0
M  V30 64 H  25.1413 38.2943 85.5086 0
M  V30 65 H  30.2755 38.8994 83.6395 0
M  V30 66 H  28.8751 35.0006 82.5128 0
M  V30 67 H  26.0727 38.0593 83.5679 0
M  V30 END ATOM
M  V30 BEGIN BOND
M  V30 1 2 1 2
M  V30 2 1 1 6
M  V30 3 1 1 44
M  V30 4 1 2 3
M  V30 5 1 2 45
M  V30 6 2 3 4
M  V30 7 1 3 46
M  V30 8 1 4 5
M  V30 9 1 4 47
M  V30 10 2 5 6
M  V30 11 1 5 7
M  V30 12 1 6 10
M  V30 13 2 7 8
M  V30 14 1 7 11
M  V30 15 1 8 9
M  V30 16 1 8 48
M  V30 17 2 9 10
M  V30 18 1 9 49
M  V30 19 2 11 12
M  V30 20 1 11 13
M  V30 21 1 13 14
M  V30 22 1 13 50
M  V30 23 1 14 15
M  V30 24 1 14 27
M  V30 25 1 14 51
M  V30 26 1 15 16
M  V30 27 1 15 52
M  V30 28 1 15 53
M  V30 29 1 16 17
M  V30 30 1 16 25
M  V30 31 1 16 54
M  V30 32 1 17 18
M  V30 33 1 17 55
M  V30 34 1 17 56
M  V30 35 2 18 19
M  V30 36 1 18 24
M  V30 37 1 19 20
M  V30 38 1 19 57
M  V30 39 2 20 21
M  V30 40 1 20 58
M  V30 41 1 21 22
M  V30 42 1 21 23
M  V30 43 2 23 24
M  V30 44 1 23 59
M  V30 45 1 24 60
M  V30 46 1 25 26
M  V30 47 1 25 28
M  V30 48 1 26 27
M  V30 49 1 26 61
M  V30 50 1 26 62
M  V30 51 1 27 63
M  V30 52 1 27 64
M  V30 53 2 28 29
M  V30 54 1 28 30
M  V30 55 2 30 31
M  V30 56 1 30 43
M  V30 57 1 31 32
M  V30 58 1 31 65
M  V30 59 1 32 33
M  V30 60 2 32 37
M  V30 61 1 33 34
M  V30 62 1 33 35
M  V30 63 1 33 36
M  V30 64 1 37 38
M  V30 65 1 37 66
M  V30 66 1 38 39
M  V30 67 2 38 43
M  V30 68 1 39 40
M  V30 69 1 39 41
M  V30 70 1 39 42
M  V30 71 1 43 67
M  V30 END BOND
M  V30 END CTAB
M  END
> <s_m_entry_id>
751

> <s_m_entry_name>
result.1402

> <s_m_Source_Path>
D:\OneDrive - zju.edu.cn\DOC\A-Finished\LCK_VS\Planet\LCK-8617

> <s_m_Source_File>
glide-dock_SP_top1262_2_pv.maegz

> <i_m_Source_File_Index>
751

> <PLANET_affinity>
7.388

> <i_lp_mmshare_version>
54117

> <i_f3d_flags>
0

> <s_epik_input>
W2NIXTFbY0hdW2NIXVtjSF1jKGMxMiluW2NIXVtjSF1jMkMoPU8pW05IXVtDQEBIXTNbQ0gyXVtDQEBIXShbQ0gyXWM0W2NIXVtjSF1jKENsKVtjSF1bY0hdNClOKFtDSDJdW0NIMl0zKUMoPU8pYzVbY0hdYyhDKEYpKEYpRilbY0hdYyhDKEYpKEYpRilbY0hdNQ==

> <s_epik_cmdline>
J2VwaWtfcHl0aG9uJywgJy1waCcsICc3LjAnLCAnLXRuJywgJzgnLCAnLW1hJywgJzUwMCcsICctaW1hZScsICc8aW5maWxlLm1hZT4nLCAnLW9tYWUnLCAnPG91dGZpbGUubWFlPic=

> <r_epik_Ionization_Penalty>
  0.0001

> <r_epik_Ionization_Penalty_Charging>
  0.0000

> <r_epik_Ionization_Penalty_Neutral>
  0.0001

> <r_epik_State_Penalty>
  0.0000

> <r_epik_Charging_Adjusted_Penalty>
0

> <i_epik_Tot_Q>
0

> <i_epik_Tot_abs_Q>
0

> <s_lp_Force_Field>
S-OPLS

> <r_lp_Energy>
66.0322

> <b_lp_Chiralities_Consistent>
1

> <s_lp_Variant>
O=C(C1=CC=NC2=CC=CC=C12)N[C@@H]3C[C@@H](CC4=CC=C(Cl)C=C4)N(C(C5=CC(C(F)(F)F)=...-1

> <s_i_glide_gridfile>
glide-grid_1

> <i_i_glide_lignum>
2116

> <i_i_glide_rotatable_bonds>
9

> <r_i_docking_score>
-7.7383031736494

> <r_i_glide_ligand_efficiency>
-0.179960538922079

> <r_i_glide_ligand_efficiency_sa>
-0.630473402215316

> <r_i_glide_ligand_efficiency_ln>
-1.62528416903606

> <r_i_glide_gscore>
-7.7383031736494

> <r_i_glide_lipo>
-3.33355930335439

> <r_i_glide_hbond>
-0.310540567946833

> <r_i_glide_metal>
0

> <r_i_glide_rewards>
-1.29812434817439

> <r_i_glide_evdw>
-47.4498825073242

> <r_i_glide_ecoul>
-4.50568246841431

> <r_i_glide_erotb>
0.252493331352592

> <r_i_glide_esite>
-0.000225789898018242

> <r_i_glide_emodel>
-70.964075435663

> <r_i_glide_energy>
-51.9555649757385

> <r_i_glide_einternal>
10.5492715835571

> <i_i_glide_confnum>
5

> <i_i_glide_posenum>
87

> <r_i_glide_eff_state_penalty>
0

> <r_lp_tautomer_probability>
1

> <s_m_subgroup_title>
glide-dock_SP_top1262_2_pv

> <s_m_subgroupid>
glide-dock_SP_top1262_2_pv

> <b_m_subgroup_collapsed>
0

$$$$
ClC1=CN=C(NC2CCOCC2)N=C1C3=CC=C(CN([C@H](C)C(N[C@H](CO)C4=CC=CC(C)=C4)=O)C5=O...
                    3D
 Schrodinger Suite 2021-3.
  0  0  0     0  0            999 V3000
M  V30 BEGIN CTAB
M  V30 COUNTS 71 75 0 0 0
M  V30 BEGIN ATOM
M  V30 1 C  18.8101 38.3746 86.4171 0
M  V30 2 C  17.3120 38.3284 86.0455 0
M  V30 3 O  17.0790 39.0703 84.8459 0
M  V30 4 C  17.7678 38.5576 83.7107 0
M  V30 5 C  19.2854 38.6115 83.9613 0
M  V30 6 C  19.6558 37.8506 85.2439 0
M  V30 7 N  21.0827 38.0411 85.5201 0
M  V30 8 C  22.0670 37.2996 84.8430 0
M  V30 9 N  21.6873 36.2667 84.0510 0
M  V30 10 C  22.6753 35.5573 83.4629 0
M  V30 11 C  24.0294 35.8379 83.6425 0
M  V30 12 Cl 25.1603 34.7580 82.8959 0
M  V30 13 N  23.3557 37.6778 85.0443 0
M  V30 14 C  24.3581 36.9597 84.4437 0
M  V30 15 C  25.7532 37.4726 84.7174 0
M  V30 16 C  26.0191 38.2554 85.8615 0
M  V30 17 C  27.2867 38.7840 86.1172 0
M  V30 18 C  26.8343 37.2315 83.8462 0
M  V30 19 C  28.1108 37.7100 84.1422 0
M  V30 20 C  28.3343 38.5038 85.2439 0
M  V30 21 C  29.4017 37.4708 83.4261 0
M  V30 22 O  29.5956 36.7566 82.4435 0
M  V30 23 N  30.3198 38.2058 84.1008 0
M  V30 24 C  29.7779 38.9022 85.2707 0
M  V30 25 C  31.7272 38.3272 83.6460 0 CFG=2
M  V30 26 C  32.7126 38.3675 84.8220 0
M  V30 27 C  31.9103 39.5890 82.7444 0
M  V30 28 O  30.9742 40.3568 82.5045 0
M  V30 29 N  33.1457 39.7906 82.2429 0
M  V30 30 C  33.5896 40.9568 81.4569 0 CFG=2
M  V30 31 C  32.9330 41.0405 80.0481 0
M  V30 32 O  33.2830 39.9522 79.2159 0
M  V30 33 C  35.1214 41.1159 81.3825 0
M  V30 34 C  36.0047 40.1033 81.7897 0
M  V30 35 C  37.3845 40.2952 81.7222 0
M  V30 36 C  37.9042 41.4997 81.2510 0
M  V30 37 C  37.0429 42.5201 80.8437 0
M  V30 38 C  37.5922 43.8332 80.3174 0
M  V30 39 C  35.6622 42.3246 80.9152 0
M  V30 40 H  18.9875 37.7765 87.3118 0
M  V30 41 H  19.0844 39.4013 86.6663 0
M  V30 42 H  16.9691 37.2989 85.9274 0
M  V30 43 H  16.7120 38.7555 86.8442 0
M  V30 44 H  17.4398 37.5460 83.4860 0
M  V30 45 H  17.4993 39.1565 82.8435 0
M  V30 46 H  19.6079 39.6505 84.0436 0
M  V30 47 H  19.8080 38.1829 83.1065 0
M  V30 48 H  19.4551 36.7876 85.0956 0
M  V30 49 H  21.3768 38.9163 85.9278 0
M  V30 50 H  22.3540 34.7387 82.8436 0
M  V30 51 H  25.2310 38.4775 86.5668 0
M  V30 52 H  27.4454 39.3918 86.9962 0
M  V30 53 H  26.7085 36.6870 82.9270 0
M  V30 54 H  30.2868 38.5824 86.1811 0
M  V30 55 H  29.9243 39.9793 85.1757 0
M  V30 56 H  31.9574 37.4544 83.0313 0
M  V30 57 H  33.7434 38.3181 84.4685 0
M  V30 58 H  32.5864 39.2761 85.4135 0
M  V30 59 H  32.5423 37.5058 85.4689 0
M  V30 60 H  33.8608 39.1155 82.4612 0
M  V30 61 H  33.2588 41.8172 82.0439 0
M  V30 62 H  31.8456 41.0674 80.1275 0
M  V30 63 H  33.2211 41.9565 79.5318 0
M  V30 64 H  32.4534 39.5722 78.8741 0
M  V30 65 H  35.6382 39.1551 82.1525 0
M  V30 66 H  38.0517 39.5063 82.0351 0
M  V30 67 H  38.9751 41.6343 81.2008 0
M  V30 68 H  37.1690 44.6672 80.8789 0
M  V30 69 H  38.6785 43.8882 80.3986 0
M  V30 70 H  37.3120 43.9675 79.2725 0
M  V30 71 H  35.0053 43.1214 80.5964 0
M  V30 END ATOM
M  V30 BEGIN BOND
M  V30 1 1 1 2
M  V30 2 1 1 6
M  V30 3 1 1 40
M  V30 4 1 1 41
M  V30 5 1 2 3
M  V30 6 1 2 42
M  V30 7 1 2 43
M  V30 8 1 3 4
M  V30 9 1 4 5
M  V30 10 1 4 44
M  V30 11 1 4 45
M  V30 12 1 5 6
M  V30 13 1 5 46
M  V30 14 1 5 47
M  V30 15 1 6 7
M  V30 16 1 6 48
M  V30 17 1 7 8
M  V30 18 1 7 49
M  V30 19 2 8 9
M  V30 20 1 8 13
M  V30 21 1 9 10
M  V30 22 2 10 11
M  V30 23 1 10 50
M  V30 24 1 11 12
M  V30 25 1 11 14
M  V30 26 2 13 14
M  V30 27 1 14 15
M  V30 28 2 15 16
M  V30 29 1 15 18
M  V30 30 1 16 17
M  V30 31 1 16 51
M  V30 32 2 17 20
M  V30 33 1 17 52
M  V30 34 2 18 19
M  V30 35 1 18 53
M  V30 36 1 19 20
M  V30 37 1 19 21
M  V30 38 1 20 24
M  V30 39 2 21 22
M  V30 40 1 21 23
M  V30 41 1 23 24
M  V30 42 1 23 25
M  V30 43 1 24 54
M  V30 44 1 24 55
M  V30 45 1 25 26
M  V30 46 1 25 27
M  V30 47 1 25 56
M  V30 48 1 26 57
M  V30 49 1 26 58
M  V30 50 1 26 59
M  V30 51 2 27 28
M  V30 52 1 27 29
M  V30 53 1 29 30
M  V30 54 1 29 60
M  V30 55 1 30 31
M  V30 56 1 30 33
M  V30 57 1 30 61
M  V30 58 1 31 32
M  V30 59 1 31 62
M  V30 60 1 31 63
M  V30 61 1 32 64
M  V30 62 2 33 34
M  V30 63 1 33 39
M  V30 64 1 34 35
M  V30 65 1 34 65
M  V30 66 2 35 36
M  V30 67 1 35 66
M  V30 68 1 36 37
M  V30 69 1 36 67
M  V30 70 1 37 38
M  V30 71 2 37 39
M  V30 72 1 38 68
M  V30 73 1 38 69
M  V30 74 1 38 70
M  V30 75 1 39 71
M  V30 END BOND
M  V30 END CTAB
M  END
> <s_m_entry_id>
752

> <s_m_entry_name>
result.476

> <s_m_Source_Path>
D:\OneDrive - zju.edu.cn\DOC\A-Finished\LCK_VS\Planet\LCK-8617

> <s_m_Source_File>
glide-dock_SP_top1262_2_pv.maegz

> <i_m_Source_File_Index>
752

> <PLANET_affinity>
7.628

> <i_lp_mmshare_version>
54117

> <i_f3d_flags>
0

> <s_epik_input>
W0NIMl0xW0NIMl1PW0NIMl1bQ0gyXVtDSF0xW05IXWMybltjSF1jKENsKWMobjIpLWMoW2NIXTMpW2NIXVtjSF1jKGMzNClbQ0gyXU4oQzQ9TylbQ0BIXShbQ0gzXSlDKD1PKVtOSF1bQ0BIXShbQ0gyXVtPSF0pYzVbY0hdW2NIXVtjSF1jKFtDSDNdKVtjSF01

> <s_epik_cmdline>
J2VwaWtfcHl0aG9uJywgJy1waCcsICc3LjAnLCAnLXRuJywgJzgnLCAnLW1hJywgJzUwMCcsICctaW1hZScsICc8aW5maWxlLm1hZT4nLCAnLW9tYWUnLCAnPG91dGZpbGUubWFlPic=

> <r_epik_Ionization_Penalty>
  0.0000

> <r_epik_Ionization_Penalty_Charging>
  0.0000

> <r_epik_Ionization_Penalty_Neutral>
  0.0000

> <r_epik_State_Penalty>
  0.0000

> <r_epik_Charging_Adjusted_Penalty>
0

> <i_epik_Tot_Q>
0

> <i_epik_Tot_abs_Q>
0

> <s_lp_Force_Field>
S-OPLS

> <r_lp_Energy>
47.9007

> <b_lp_Chiralities_Consistent>
1

> <s_lp_Variant>
ClC1=CN=C(NC2CCOCC2)N=C1C3=CC=C(CN([C@H](C)C(N[C@H](CO)C4=CC=CC(C)=C4)=O)C5=O...-1

> <s_i_glide_gridfile>
glide-grid_1

> <i_i_glide_lignum>
1754

> <i_i_glide_rotatable_bonds>
10

> <r_i_docking_score>
-7.73523775180267

> <r_i_glide_ligand_efficiency>
-0.198339429533402

> <r_i_glide_ligand_efficiency_sa>
-0.67261094221319

> <r_i_glide_ligand_efficiency_ln>
-1.6586545517678

> <r_i_glide_gscore>
-7.73523775180267

> <r_i_glide_lipo>
-3.298373650651

> <r_i_glide_hbond>
-0.500496436266227

> <r_i_glide_metal>
0

> <r_i_glide_rewards>
-0.804370490615015

> <r_i_glide_evdw>
-47.7906341552734

> <r_i_glide_ecoul>
-8.60375022888184

> <r_i_glide_erotb>
0.548097067825518

> <r_i_glide_esite>
0

> <r_i_glide_emodel>
-76.9492417289112

> <r_i_glide_energy>
-56.3943843841553

> <r_i_glide_einternal>
8.28971004486084

> <i_i_glide_confnum>
291

> <i_i_glide_posenum>
161

> <r_i_glide_eff_state_penalty>
0

> <r_lp_tautomer_probability>
1

> <s_m_subgroup_title>
glide-dock_SP_top1262_2_pv

> <s_m_subgroupid>
glide-dock_SP_top1262_2_pv

> <b_m_subgroup_collapsed>
0

$$$$
OC1=C2C(O[C@H](C3=CC(O)=C(O)C=C3)[C@H](O)[C@H]2C4=C5C(C[C@@H](O)[C@@H](C6=CC(...
                    3D
 Schrodinger Suite 2021-3.
  0  0  0     0  0            999 V3000
M  V30 BEGIN CTAB
M  V30 COUNTS 100 108 0 0 0
M  V30 BEGIN ATOM
M  V30 1 O  26.3135 43.7558 84.4158 0
M  V30 2 C  26.6133 44.0781 85.7106 0
M  V30 3 C  25.6809 44.8148 86.4401 0
M  V30 4 C  25.9475 45.1540 87.7621 0
M  V30 5 O  25.0272 45.8572 88.4896 0
M  V30 6 C  27.1512 44.7777 88.3463 0
M  V30 7 C  28.0755 44.0305 87.6185 0
M  V30 8 C  27.8273 43.6634 86.2841 0
M  V30 9 O  29.2470 43.7293 88.2867 0
M  V30 10 C  29.9896 42.5877 87.8182 0 CFG=2
M  V30 11 C  31.2498 42.3635 88.6704 0
M  V30 12 C  32.1964 41.3977 88.3027 0
M  V30 13 C  33.3124 41.1445 89.1031 0
M  V30 14 O  34.2048 40.1755 88.7145 0
M  V30 15 C  33.4974 41.8699 90.2891 0
M  V30 16 O  34.5802 41.6472 91.1029 0
M  V30 17 C  32.5597 42.8317 90.6640 0
M  V30 18 C  31.4435 43.0738 89.8643 0
M  V30 19 C  30.2138 42.7188 86.2910 0 CFG=2
M  V30 20 O  31.0529 43.8378 86.0428 0
M  V30 21 C  28.8467 42.7901 85.5368 0 CFG=1
M  V30 22 C  28.2979 41.3966 85.1070 0
M  V30 23 C  28.6034 40.8962 83.8293 0
M  V30 24 O  29.3640 41.5566 82.9075 0
M  V30 25 C  28.1370 39.6664 83.4120 0
M  V30 26 C  27.3235 38.8948 84.2174 0
M  V30 27 O  26.9630 37.7554 83.7620 0 CHG=-1
M  V30 28 C  27.4618 40.6063 85.9344 0
M  V30 29 C  26.9499 39.3572 85.4923 0
M  V30 30 O  27.2734 41.0585 87.2374 0
M  V30 31 C  26.1380 40.5622 87.9642 0 CFG=2
M  V30 32 C  26.0566 41.0627 89.4129 0
M  V30 33 C  24.9255 40.7590 90.1782 0
M  V30 34 C  24.7698 41.2666 91.4643 0
M  V30 35 O  23.6431 40.9658 92.1843 0
M  V30 36 C  25.7627 42.0868 92.0063 0
M  V30 37 O  25.6116 42.6424 93.2435 0
M  V30 38 C  26.9195 42.3567 91.2798 0
M  V30 39 C  27.0622 41.8409 89.9939 0
M  V30 40 C  26.0965 39.0271 87.8601 0 CFG=2
M  V30 41 O  27.2827 38.5339 88.4569 0
M  V30 42 C  26.0105 38.5464 86.3978 0 CFG=1
M  V30 43 C  24.5770 38.3414 85.8191 0
M  V30 44 C  24.0827 37.0473 85.5831 0
M  V30 45 O  24.8830 35.9566 85.6925 0
M  V30 46 C  22.7853 36.8229 85.1462 0
M  V30 47 C  21.9623 37.8923 84.8431 0
M  V30 48 O  20.6881 37.6351 84.4132 0
M  V30 49 C  22.4376 39.2019 84.9513 0
M  V30 50 C  23.7426 39.4107 85.4553 0
M  V30 51 C  21.5854 40.4014 84.5540 0
M  V30 52 C  22.4670 41.6365 84.3492 0 CFG=1
M  V30 53 O  21.6847 42.7566 84.0431 0
M  V30 54 C  23.3892 41.7922 85.5744 0 CFG=2
M  V30 55 O  24.2909 40.6786 85.5407 0
M  V30 56 C  22.6849 42.0203 86.9345 0
M  V30 57 C  22.2817 43.3147 87.2887 0
M  V30 58 C  21.6900 43.5682 88.5291 0
M  V30 59 O  21.2829 44.8398 88.8425 0
M  V30 60 C  21.4764 42.5224 89.4297 0
M  V30 61 O  20.8856 42.7565 90.6445 0
M  V30 62 C  21.8408 41.2274 89.0793 0
M  V30 63 C  22.4425 40.9802 87.8467 0
M  V30 64 H  25.5036 44.1549 84.0825 0
M  V30 65 H  24.7501 45.1165 85.9829 0
M  V30 66 H  24.2075 45.9992 88.0116 0
M  V30 67 H  27.3626 45.0498 89.3687 0
M  V30 68 H  29.4276 41.6774 88.0020 0
M  V30 69 H  32.0520 40.8147 87.4050 0
M  V30 70 H  33.9327 39.7016 87.9243 0
M  V30 71 H  34.5893 42.2048 91.8839 0
M  V30 72 H  32.6848 43.3929 91.5789 0
M  V30 73 H  30.7260 43.8154 90.1855 0
M  V30 74 H  30.7678 41.8609 85.9097 0
M  V30 75 H  31.2707 43.8693 85.0968 0
M  V30 76 H  29.0216 43.3320 84.6068 0
M  V30 77 H  28.4344 39.3076 82.4443 0
M  V30 78 H  25.2568 41.0209 87.5419 0
M  V30 79 H  24.1511 40.1307 89.7722 0
M  V30 80 H  23.6815 41.4082 93.0382 0
M  V30 81 H  26.3718 43.1729 93.4900 0
M  V30 82 H  27.6991 42.9778 91.6963 0
M  V30 83 H  27.9578 42.0649 89.4541 0
M  V30 84 H  25.2662 38.6095 88.4297 0
M  V30 85 H  27.9994 39.1253 88.2047 0
M  V30 86 H  26.4625 37.5559 86.4269 0
M  V30 87 H  25.7559 36.1507 85.3332 0
M  V30 88 H  22.4303 35.8136 85.0004 0
M  V30 89 H  20.1826 38.4404 84.2929 0
M  V30 90 H  21.0343 40.1930 83.6441 0
M  V30 91 H  20.8445 40.5928 85.3326 0
M  V30 92 H  23.0938 41.4898 83.4672 0
M  V30 93 H  22.2121 43.5647 84.0431 0
M  V30 94 H  24.0192 42.6676 85.4191 0
M  V30 95 H  22.4194 44.1328 86.5959 0
M  V30 96 H  20.7171 45.1710 88.1280 0
M  V30 97 H  20.7377 43.7022 90.7476 0
M  V30 98 H  21.6831 40.4134 89.7710 0
M  V30 99 H  22.7267 39.9626 87.6379 0
M  V30 100 H  29.9532 42.2499 83.2436 0
M  V30 END ATOM
M  V30 BEGIN BOND
M  V30 1 1 1 2
M  V30 2 1 1 64
M  V30 3 2 2 3
M  V30 4 1 2 8
M  V30 5 1 3 4
M  V30 6 1 3 65
M  V30 7 1 4 5
M  V30 8 2 4 6
M  V30 9 1 5 66
M  V30 10 1 6 7
M  V30 11 1 6 67
M  V30 12 2 7 8
M  V30 13 1 7 9
M  V30 14 1 8 21
M  V30 15 1 9 10
M  V30 16 1 10 11
M  V30 17 1 10 19
M  V30 18 1 10 68
M  V30 19 2 11 12
M  V30 20 1 11 18
M  V30 21 1 12 13
M  V30 22 1 12 69
M  V30 23 1 13 14
M  V30 24 2 13 15
M  V30 25 1 14 70
M  V30 26 1 15 16
M  V30 27 1 15 17
M  V30 28 1 16 71
M  V30 29 2 17 18
M  V30 30 1 17 72
M  V30 31 1 18 73
M  V30 32 1 19 20
M  V30 33 1 19 21
M  V30 34 1 19 74
M  V30 35 1 20 75
M  V30 36 1 21 22
M  V30 37 1 21 76
M  V30 38 2 22 23
M  V30 39 1 22 28
M  V30 40 1 23 24
M  V30 41 1 23 25
M  V30 42 1 24 100
M  V30 43 2 25 26
M  V30 44 1 25 77
M  V30 45 1 26 27
M  V30 46 1 26 29
M  V30 47 2 28 29
M  V30 48 1 28 30
M  V30 49 1 29 42
M  V30 50 1 30 31
M  V30 51 1 31 32
M  V30 52 1 31 40
M  V30 53 1 31 78
M  V30 54 2 32 33
M  V30 55 1 32 39
M  V30 56 1 33 34
M  V30 57 1 33 79
M  V30 58 1 34 35
M  V30 59 2 34 36
M  V30 60 1 35 80
M  V30 61 1 36 37
M  V30 62 1 36 38
M  V30 63 1 37 81
M  V30 64 2 38 39
M  V30 65 1 38 82
M  V30 66 1 39 83
M  V30 67 1 40 41
M  V30 68 1 40 42
M  V30 69 1 40 84
M  V30 70 1 41 85
M  V30 71 1 42 43
M  V30 72 1 42 86
M  V30 73 2 43 44
M  V30 74 1 43 50
M  V30 75 1 44 45
M  V30 76 1 44 46
M  V30 77 1 45 87
M  V30 78 2 46 47
M  V30 79 1 46 88
M  V30 80 1 47 48
M  V30 81 1 47 49
M  V30 82 1 48 89
M  V30 83 2 49 50
M  V30 84 1 49 51
M  V30 85 1 50 55
M  V30 86 1 51 52
M  V30 87 1 51 90
M  V30 88 1 51 91
M  V30 89 1 52 53
M  V30 90 1 52 54
M  V30 91 1 52 92
M  V30 92 1 53 93
M  V30 93 1 54 55
M  V30 94 1 54 56
M  V30 95 1 54 94
M  V30 96 2 56 57
M  V30 97 1 56 63
M  V30 98 1 57 58
M  V30 99 1 57 95
M  V30 100 1 58 59
M  V30 101 2 58 60
M  V30 102 1 59 96
M  V30 103 1 60 61
M  V30 104 1 60 62
M  V30 105 1 61 97
M  V30 106 2 62 63
M  V30 107 1 62 98
M  V30 108 1 63 99
M  V30 END BOND
M  V30 END CTAB
M  END
> <s_m_entry_id>
754

> <s_m_entry_name>
result.7375

> <s_m_Source_Path>
D:\OneDrive - zju.edu.cn\DOC\A-Finished\LCK_VS\Planet\LCK-8617

> <s_m_Source_File>
glide-dock_SP_top1262_2_pv.maegz

> <i_m_Source_File_Index>
754

> <PLANET_affinity>
11.498

> <i_lp_mmshare_version>
54117

> <i_f3d_flags>
0

> <s_epik_input>
W2NIXTFbY0hdYyhbT0hdKWMoW09IXSlbY0hdYzFbQ0BASF0oTzIpW0NASF0oW09IXSlbQ0BIXShjKGMyMyljKFtPSF0pW2NIXWMoW09IXSlbY0hdMyljNGMoW09IXSlbY0hdYyhbT0hdKWMoYzQ1KVtDQEBIXShbQ0BASF0oW09IXSlbQ0BIXShPNSljNltjSF1jKFtPSF0pYyhbT0hdKVtjSF1bY0hdNiljKGMoW09IXSlbY0hdYzdbT0hdKWMoYzc4KU9bQ0BASF0oW0NAQEhdKFtDSDJdOClbT0hdKWM5W2NIXWMoW09IXSljKFtPSF0pW2NIXVtjSF05

> <s_epik_cmdline>
J2VwaWtfcHl0aG9uJywgJy1waCcsICc3LjAnLCAnLXRuJywgJzgnLCAnLW1hJywgJzUwMCcsICctaW1hZScsICc8aW5maWxlLm1hZT4nLCAnLW9tYWUnLCAnPG91dGZpbGUubWFlPic=

> <r_epik_Ionization_Penalty>
  1.3522

> <r_epik_Ionization_Penalty_Charging>
  0.0010

> <r_epik_Ionization_Penalty_Neutral>
  1.3512

> <r_epik_State_Penalty>
  1.3407

> <r_epik_Charging_Adjusted_Penalty>
1.34169

> <i_epik_Tot_Q>
-1

> <i_epik_Tot_abs_Q>
1

> <s_lp_Force_Field>
S-OPLS

> <r_lp_Energy>
76.4769

> <b_lp_Chiralities_Consistent>
1

> <s_lp_Variant>
OC1=C2C(O[C@H](C3=CC(O)=C(O)C=C3)[C@H](O)[C@H]2C4=C5C(C[C@@H](O)[C@@H](C6=CC(...-2

> <s_i_glide_gridfile>
glide-grid_1

> <i_i_glide_lignum>
143

> <i_i_glide_rotatable_bonds>
19

> <r_i_docking_score>
-7.73431538997274

> <r_i_glide_ligand_efficiency>
-0.122766910951948

> <r_i_glide_ligand_efficiency_sa>
-0.488496561239889

> <r_i_glide_ligand_efficiency_ln>
-1.50381349146558

> <r_i_glide_gscore>
-9.07501538997274

> <r_i_glide_lipo>
-2.23069862645192

> <r_i_glide_hbond>
-1.24334401711617

> <r_i_glide_metal>
0

> <r_i_glide_rewards>
0

> <r_i_glide_evdw>
-43.8249015808105

> <r_i_glide_ecoul>
-23.7082462310791

> <r_i_glide_erotb>
0.146509267297736

> <r_i_glide_esite>
0

> <r_i_glide_emodel>
-100.548656863384

> <r_i_glide_energy>
-67.5331478118896

> <r_i_glide_einternal>
11.6538581848145

> <i_i_glide_confnum>
73

> <i_i_glide_posenum>
149

> <r_i_glide_eff_state_penalty>
1.3407

> <r_lp_tautomer_probability>
1

> <s_m_subgroup_title>
glide-dock_SP_top1262_2_pv

> <s_m_subgroupid>
glide-dock_SP_top1262_2_pv

> <b_m_subgroup_collapsed>
0

$$$$
O=C(N)C1=CC=C(N=C1C2=CC=C(C=C2F)F)N(C3=C(C=CC=C3F)F)C(N)=O
                    3D
 Schrodinger Suite 2021-3.
  0  0  0     0  0            999 V3000
M  V30 BEGIN CTAB
M  V30 COUNTS 41 43 0 0 0
M  V30 BEGIN ATOM
M  V30 1 F  19.2191 39.5256 85.4136 0
M  V30 2 C  19.2550 38.4267 86.2045 0
M  V30 3 C  18.0591 37.8873 86.6723 0
M  V30 4 C  18.0743 36.7578 87.4874 0
M  V30 5 C  19.2824 36.1411 87.8098 0
M  V30 6 C  20.4847 36.6755 87.3487 0
M  V30 7 F  21.6478 36.0502 87.6435 0
M  V30 8 C  20.4813 37.8455 86.5755 0
M  V30 9 N  21.7043 38.4689 86.2129 0
M  V30 10 C  21.9799 39.6514 86.8625 0
M  V30 11 O  21.5192 39.9573 87.9651 0
M  V30 12 N  22.6884 40.5611 86.1897 0
M  V30 13 C  22.6371 37.7680 85.3654 0
M  V30 14 C  22.2173 36.6715 84.5962 0
M  V30 15 C  23.1472 35.9567 83.8431 0
M  V30 16 C  24.4832 36.3786 83.7794 0
M  V30 17 C  25.4078 35.6379 82.8484 0
M  V30 18 O  25.4230 34.4136 82.7971 0
M  V30 19 N  26.1651 36.3766 82.0435 0
M  V30 20 N  23.9483 38.1407 85.3432 0
M  V30 21 C  24.8540 37.5192 84.5423 0
M  V30 22 C  26.2031 38.1907 84.5542 0
M  V30 23 C  27.3762 37.4302 84.6338 0
M  V30 24 C  28.6380 38.0206 84.6091 0
M  V30 25 C  28.7531 39.4034 84.5275 0
M  V30 26 F  29.9738 39.9809 84.5003 0
M  V30 27 C  27.6071 40.1894 84.4760 0
M  V30 28 C  26.3451 39.5943 84.4936 0
M  V30 29 F  25.2630 40.4053 84.4436 0
M  V30 30 H  17.1201 38.3595 86.4185 0
M  V30 31 H  17.1437 36.3566 87.8523 0
M  V30 32 H  19.2875 35.2532 88.4274 0
M  V30 33 H  23.1164 40.3308 85.3053 0
M  V30 34 H  22.8258 41.4732 86.5969 0
M  V30 35 H  21.1879 36.3507 84.5906 0
M  V30 36 H  22.8096 35.1019 83.2702 0
M  V30 37 H  26.1411 37.3827 82.1037 0
M  V30 38 H  26.7792 35.9219 81.3767 0
M  V30 39 H  27.3061 36.3568 84.6982 0
M  V30 40 H  29.5265 37.4079 84.6582 0
M  V30 41 H  27.6985 41.2643 84.4254 0
M  V30 END ATOM
M  V30 BEGIN BOND
M  V30 1 1 1 2
M  V30 2 2 2 3
M  V30 3 1 2 8
M  V30 4 1 3 4
M  V30 5 1 3 30
M  V30 6 2 4 5
M  V30 7 1 4 31
M  V30 8 1 5 6
M  V30 9 1 5 32
M  V30 10 1 6 7
M  V30 11 2 6 8
M  V30 12 1 8 9
M  V30 13 1 9 10
M  V30 14 1 9 13
M  V30 15 2 10 11
M  V30 16 1 10 12
M  V30 17 1 12 33
M  V30 18 1 12 34
M  V30 19 2 13 14
M  V30 20 1 13 20
M  V30 21 1 14 15
M  V30 22 1 14 35
M  V30 23 2 15 16
M  V30 24 1 15 36
M  V30 25 1 16 17
M  V30 26 1 16 21
M  V30 27 2 17 18
M  V30 28 1 17 19
M  V30 29 1 19 37
M  V30 30 1 19 38
M  V30 31 2 20 21
M  V30 32 1 21 22
M  V30 33 2 22 23
M  V30 34 1 22 28
M  V30 35 1 23 24
M  V30 36 1 23 39
M  V30 37 2 24 25
M  V30 38 1 24 40
M  V30 39 1 25 26
M  V30 40 1 25 27
M  V30 41 2 27 28
M  V30 42 1 27 41
M  V30 43 1 28 29
M  V30 END BOND
M  V30 END CTAB
M  END
> <s_m_entry_id>
756

> <s_m_entry_name>
result.1987

> <s_m_Source_Path>
D:\OneDrive - zju.edu.cn\DOC\A-Finished\LCK_VS\Planet\LCK-8617

> <s_m_Source_File>
glide-dock_SP_top1262_2_pv.maegz

> <i_m_Source_File_Index>
756

> <PLANET_affinity>
7.257

> <i_lp_mmshare_version>
54117

> <i_f3d_flags>
0

> <s_epik_input>
RmMxW2NIXVtjSF1bY0hdYyhGKWMxTihDKD1PKVtOSDJdKWMyW2NIXVtjSF1jKEMoPU8pW05IMl0pYyhuMiktYzNbY0hdW2NIXWMoRilbY0hdYzNG

> <s_epik_cmdline>
J2VwaWtfcHl0aG9uJywgJy1waCcsICc3LjAnLCAnLXRuJywgJzgnLCAnLW1hJywgJzUwMCcsICctaW1hZScsICc8aW5maWxlLm1hZT4nLCAnLW9tYWUnLCAnPG91dGZpbGUubWFlPic=

> <r_epik_Ionization_Penalty>
  0.0000

> <r_epik_Ionization_Penalty_Charging>
  0.0000

> <r_epik_Ionization_Penalty_Neutral>
  0.0000

> <r_epik_State_Penalty>
  0.0000

> <r_epik_Charging_Adjusted_Penalty>
0

> <i_epik_Tot_Q>
0

> <i_epik_Tot_abs_Q>
0

> <s_lp_Force_Field>
S-OPLS

> <r_lp_Energy>
46.5228

> <b_lp_Chiralities_Consistent>
1

> <s_lp_Variant>
O=C(N)C1=CC=C(N=C1C2=CC=C(C=C2F)F)N(C3=C(C=CC=C3F)F)C(N)=O-1

> <s_i_glide_gridfile>
glide-grid_1

> <i_i_glide_lignum>
2308

> <i_i_glide_rotatable_bonds>
5

> <r_i_docking_score>
-7.73303828975831

> <r_i_glide_ligand_efficiency>
-0.266656492750287

> <r_i_glide_ligand_efficiency_sa>
-0.819253228435525

> <r_i_glide_ligand_efficiency_ln>
-1.77066967542299

> <r_i_glide_gscore>
-7.73303828975831

> <r_i_glide_lipo>
-2.90696898829595

> <r_i_glide_hbond>
-0.608

> <r_i_glide_metal>
0

> <r_i_glide_rewards>
-1.80776905090118

> <r_i_glide_evdw>
-38.147289276123

> <r_i_glide_ecoul>
-5.69894409179688

> <r_i_glide_erotb>
0.360462587739777

> <r_i_glide_esite>
-0.00855676072526786

> <r_i_glide_emodel>
-61.2599432198467

> <r_i_glide_energy>
-43.8462333679199

> <r_i_glide_einternal>
6.81891679763794

> <i_i_glide_confnum>
6

> <i_i_glide_posenum>
251

> <r_i_glide_eff_state_penalty>
0

> <r_lp_tautomer_probability>
1

> <s_m_subgroup_title>
glide-dock_SP_top1262_2_pv

> <s_m_subgroupid>
glide-dock_SP_top1262_2_pv

> <b_m_subgroup_collapsed>
0

$$$$
O=C1C=C(C2=CC=C(OC3=CC(C4=CC(C5=C(O)C=C(O)C=C5O4)=O)=CC=C3OC)C=C2)OC6=CC(O)=C...
                    3D
 Schrodinger Suite 2021-3.
  0  0  0     0  0            999 V3000
M  V30 BEGIN CTAB
M  V30 COUNTS 61 66 0 0 0
M  V30 BEGIN ATOM
M  V30 1 C  24.5057 41.5862 93.1844 0
M  V30 2 C  23.8176 42.2470 94.1955 0
M  V30 3 O  23.2834 41.5568 95.2429 0
M  V30 4 C  23.6870 43.6273 94.1622 0
M  V30 5 C  24.2430 44.3651 93.1237 0
M  V30 6 O  24.0913 45.7254 93.1608 0
M  V30 7 C  24.9271 43.7184 92.0807 0
M  V30 8 C  25.0448 42.3202 92.1294 0
M  V30 9 C  25.5209 44.4568 90.9253 0
M  V30 10 O  25.4998 45.6840 90.8404 0
M  V30 11 C  26.0958 43.5962 89.9113 0
M  V30 12 C  26.1445 42.2509 90.0335 0
M  V30 13 O  25.6860 41.5973 91.1403 0
M  V30 14 C  26.6908 41.3174 89.0014 0
M  V30 15 C  27.4121 41.7927 87.8934 0
M  V30 16 C  27.8275 40.9300 86.8824 0
M  V30 17 C  27.5347 39.5726 86.9587 0
M  V30 18 C  26.8811 39.0701 88.0857 0
M  V30 19 C  26.4483 39.9388 89.0864 0
M  V30 20 O  27.9062 38.7571 85.9105 0
M  V30 21 C  26.9806 38.0274 85.1762 0
M  V30 22 C  25.5943 38.1377 85.3720 0
M  V30 23 C  24.6715 37.3825 84.6373 0
M  V30 24 C  25.1776 36.5026 83.6703 0
M  V30 25 C  26.5468 36.4004 83.4359 0
M  V30 26 C  27.4621 37.1598 84.1830 0
M  V30 27 O  28.8328 37.0983 84.0012 0
M  V30 28 C  29.3758 36.2069 83.0308 0
M  V30 29 C  23.2058 37.5440 84.8754 0
M  V30 30 C  22.2300 36.7687 84.3570 0
M  V30 31 C  20.8198 37.0507 84.5599 0
M  V30 32 O  19.9432 36.3566 84.0548 0
M  V30 33 O  22.9418 38.6370 85.6414 0
M  V30 34 C  21.6351 38.9604 85.9359 0
M  V30 35 C  20.5454 38.2370 85.4289 0
M  V30 36 C  21.4565 40.0594 86.7686 0
M  V30 37 C  20.1734 40.4720 87.0920 0
M  V30 38 O  19.9836 41.5577 87.8968 0
M  V30 39 C  19.0801 39.7784 86.5963 0
M  V30 40 C  19.2519 38.6698 85.7740 0
M  V30 41 O  18.1120 38.0486 85.3397 0
M  V30 42 H  24.6176 40.5135 93.1997 0
M  V30 43 H  23.6411 40.6646 95.3084 0
M  V30 44 H  23.1650 44.1364 94.9562 0
M  V30 45 H  24.5080 46.1284 92.3892 0
M  V30 46 H  26.4622 44.0774 89.0204 0
M  V30 47 H  27.6476 42.8394 87.7822 0
M  V30 48 H  28.3576 41.3178 86.0248 0
M  V30 49 H  26.6738 38.0129 88.1578 0
M  V30 50 H  25.8998 39.5314 89.9225 0
M  V30 51 H  25.2212 38.8336 86.1065 0
M  V30 52 H  24.5152 35.9046 83.0637 0
M  V30 53 H  26.8815 35.7226 82.6650 0
M  V30 54 H  30.4632 36.2795 83.0444 0
M  V30 55 H  29.1149 35.1690 83.2435 0
M  V30 56 H  29.0431 36.4592 82.0228 0
M  V30 57 H  22.4790 35.9181 83.7437 0
M  V30 58 H  22.3111 40.6016 87.1420 0
M  V30 59 H  19.1566 42.0186 87.7055 0
M  V30 60 H  18.0841 40.1064 86.8541 0
M  V30 61 H  17.3259 38.4482 85.7191 0
M  V30 END ATOM
M  V30 BEGIN BOND
M  V30 1 2 1 2
M  V30 2 1 1 8
M  V30 3 1 1 42
M  V30 4 1 2 3
M  V30 5 1 2 4
M  V30 6 1 3 43
M  V30 7 2 4 5
M  V30 8 1 4 44
M  V30 9 1 5 6
M  V30 10 1 5 7
M  V30 11 1 6 45
M  V30 12 2 7 8
M  V30 13 1 7 9
M  V30 14 1 8 13
M  V30 15 2 9 10
M  V30 16 1 9 11
M  V30 17 2 11 12
M  V30 18 1 11 46
M  V30 19 1 12 13
M  V30 20 1 12 14
M  V30 21 2 14 15
M  V30 22 1 14 19
M  V30 23 1 15 16
M  V30 24 1 15 47
M  V30 25 2 16 17
M  V30 26 1 16 48
M  V30 27 1 17 18
M  V30 28 1 17 20
M  V30 29 2 18 19
M  V30 30 1 18 49
M  V30 31 1 19 50
M  V30 32 1 20 21
M  V30 33 2 21 22
M  V30 34 1 21 26
M  V30 35 1 22 23
M  V30 36 1 22 51
M  V30 37 2 23 24
M  V30 38 1 23 29
M  V30 39 1 24 25
M  V30 40 1 24 52
M  V30 41 2 25 26
M  V30 42 1 25 53
M  V30 43 1 26 27
M  V30 44 1 27 28
M  V30 45 1 28 54
M  V30 46 1 28 55
M  V30 47 1 28 56
M  V30 48 2 29 30
M  V30 49 1 29 33
M  V30 50 1 30 31
M  V30 51 1 30 57
M  V30 52 2 31 32
M  V30 53 1 31 35
M  V30 54 1 33 34
M  V30 55 2 34 35
M  V30 56 1 34 36
M  V30 57 1 35 40
M  V30 58 2 36 37
M  V30 59 1 36 58
M  V30 60 1 37 38
M  V30 61 1 37 39
M  V30 62 1 38 59
M  V30 63 2 39 40
M  V30 64 1 39 60
M  V30 65 1 40 41
M  V30 66 1 41 61
M  V30 END BOND
M  V30 END CTAB
M  END
> <s_m_entry_id>
757

> <s_m_entry_name>
result.3057

> <s_m_Source_Path>
D:\OneDrive - zju.edu.cn\DOC\A-Finished\LCK_VS\Planet\LCK-8617

> <s_m_Source_File>
glide-dock_SP_top1262_2_pv.maegz

> <i_m_Source_File_Index>
757

> <PLANET_affinity>
8.254

> <i_lp_mmshare_version>
54117

> <i_f3d_flags>
0

> <s_epik_input>
W09IXWMxW2NIXWMoW09IXSlbY0hdYyhjMTIpb2MoW2NIXWMyPU8pLWMzW2NIXVtjSF1jKFtjSF1bY0hdMylPYzRbY0hdYyhbY0hdW2NIXWM0T1tDSDNdKS1jKG81KVtjSF1jKD1PKWMoYzU2KWMoW09IXSlbY0hdYyhbY0hdNilbT0hd

> <s_epik_cmdline>
J2VwaWtfcHl0aG9uJywgJy1waCcsICc3LjAnLCAnLXRuJywgJzgnLCAnLW1hJywgJzUwMCcsICctaW1hZScsICc8aW5maWxlLm1hZT4nLCAnLW9tYWUnLCAnPG91dGZpbGUubWFlPic=

> <r_epik_Ionization_Penalty>
  0.0967

> <r_epik_Ionization_Penalty_Charging>
  0.0000

> <r_epik_Ionization_Penalty_Neutral>
  0.0967

> <r_epik_State_Penalty>
  0.0769

> <r_epik_Charging_Adjusted_Penalty>
0.0768691

> <i_epik_Tot_Q>
0

> <i_epik_Tot_abs_Q>
0

> <s_lp_Force_Field>
S-OPLS

> <r_lp_Energy>
15.2301

> <b_lp_Chiralities_Consistent>
1

> <s_lp_Variant>
O=C1C=C(C2=CC=C(OC3=CC(C4=CC(C5=C(O)C=C(O)C=C5O4)=O)=CC=C3OC)C=C2)OC6=CC(O)=C...-1

> <s_i_glide_gridfile>
glide-grid_1

> <i_i_glide_lignum>
1022

> <i_i_glide_rotatable_bonds>
9

> <r_i_docking_score>
-7.73236589378737

> <r_i_glide_ligand_efficiency>
-0.188594290092375

> <r_i_glide_ligand_efficiency_sa>
-0.650314081729273

> <r_i_glide_ligand_efficiency_ln>
-1.64044715650095

> <r_i_glide_gscore>
-7.80926589378737

> <r_i_glide_lipo>
-3.23941579102136

> <r_i_glide_hbond>
-0.628136346925036

> <r_i_glide_metal>
0

> <r_i_glide_rewards>
-0.05

> <r_i_glide_evdw>
-46.4742889404297

> <r_i_glide_ecoul>
-11.7900848388672

> <r_i_glide_erotb>
0.200513417010587

> <r_i_glide_esite>
0

> <r_i_glide_emodel>
-82.8931674211998

> <r_i_glide_energy>
-58.2643737792969

> <r_i_glide_einternal>
8.33116817474365

> <i_i_glide_confnum>
13

> <i_i_glide_posenum>
62

> <r_i_glide_eff_state_penalty>
0.0769

> <r_lp_tautomer_probability>
1

> <s_m_subgroup_title>
glide-dock_SP_top1262_2_pv

> <s_m_subgroupid>
glide-dock_SP_top1262_2_pv

> <b_m_subgroup_collapsed>
0

$$$$
O=C(NC1=CC(C(F)(F)F)=CC=C1F)NC2=CC=C(C3=C4C(N)=NC=NN4C(CN5CCOCC5)=C3COC)C=C2F
                    3D
 Schrodinger Suite 2021-3.
  0  0  0     0  0            999 V3000
M  V30 BEGIN CTAB
M  V30 COUNTS 68 72 0 0 0
M  V30 BEGIN ATOM
M  V30 1 F  34.8506 42.4137 82.9273 0
M  V30 2 C  35.0062 41.4327 82.0046 0
M  V30 3 C  36.2443 41.2822 81.3824 0
M  V30 4 C  36.4397 40.2727 80.4433 0
M  V30 5 C  35.3892 39.4103 80.0998 0
M  V30 6 C  35.5778 38.3001 79.0681 0
M  V30 7 F  36.7557 38.3801 78.4447 0
M  V30 8 F  34.6156 38.3571 78.1447 0
M  V30 9 F  35.5130 37.1193 79.6821 0
M  V30 10 C  34.1446 39.5722 80.7176 0
M  V30 11 C  33.9472 40.5717 81.6884 0
M  V30 12 N  32.7408 40.7568 82.3958 0
M  V30 13 C  31.7354 39.8822 82.5850 0
M  V30 14 O  31.6831 38.7525 82.1008 0
M  V30 15 N  30.7918 40.4112 83.3895 0
M  V30 16 C  29.5873 39.7893 83.7505 0
M  V30 17 C  28.4196 40.5563 83.6731 0
M  V30 18 C  27.1863 39.9942 84.0046 0
M  V30 19 C  27.1111 38.6640 84.4337 0
M  V30 20 C  28.2822 37.9158 84.5625 0
M  V30 21 C  29.5204 38.4746 84.2460 0
M  V30 22 F  30.6316 37.7280 84.4437 0
M  V30 23 C  25.8020 38.0502 84.7649 0
M  V30 24 C  24.9716 38.3691 85.8439 0
M  V30 25 C  25.2710 39.4000 86.9154 0
M  V30 26 O  25.9885 38.7743 87.9681 0
M  V30 27 C  26.3305 39.6720 89.0117 0
M  V30 28 C  23.8101 37.5897 85.7602 0
M  V30 29 N  23.9213 36.7623 84.6602 0
M  V30 30 C  25.1616 37.0104 84.0435 0
M  V30 31 N  23.0098 35.8604 84.2536 0
M  V30 32 C  23.3871 35.1569 83.1615 0
M  V30 33 N  24.5393 35.2813 82.4656 0
M  V30 34 C  25.4136 36.2119 82.9089 0
M  V30 35 N  26.5872 36.3562 82.1836 0
M  V30 36 C  22.5848 37.5530 86.6752 0
M  V30 37 N  21.4436 38.3616 86.2304 0
M  V30 38 C  21.7598 39.7770 85.9954 0
M  V30 39 C  20.5290 40.5877 85.5447 0
M  V30 40 O  19.8575 39.9432 84.4665 0
M  V30 41 C  19.4123 38.6372 84.8148 0
M  V30 42 C  20.6297 37.7584 85.1652 0
M  V30 43 H  37.0561 41.9478 81.6411 0
M  V30 44 H  37.4128 40.1669 79.9852 0
M  V30 45 H  33.3418 38.9107 80.4297 0
M  V30 46 H  32.6693 41.6384 82.8842 0
M  V30 47 H  30.8431 41.4080 83.5499 0
M  V30 48 H  28.4592 41.5853 83.3443 0
M  V30 49 H  26.2876 40.5897 83.9226 0
M  V30 50 H  28.2384 36.9006 84.9272 0
M  V30 51 H  25.8528 40.2271 86.5046 0
M  V30 52 H  24.3515 39.8305 87.3086 0
M  V30 53 H  26.8829 39.1424 89.7883 0
M  V30 54 H  26.9672 40.4810 88.6506 0
M  V30 55 H  25.4393 40.1011 89.4716 0
M  V30 56 H  22.7050 34.3866 82.8442 0
M  V30 57 H  27.2794 37.0132 82.5070 0
M  V30 58 H  26.7672 35.7711 81.3719 0
M  V30 59 H  22.2569 36.5283 86.8440 0
M  V30 60 H  22.8649 37.9224 87.6635 0
M  V30 61 H  22.1715 40.2132 86.9067 0
M  V30 62 H  22.5392 39.8642 85.2352 0
M  V30 63 H  20.8832 41.5555 85.1972 0
M  V30 64 H  19.8451 40.7716 86.3748 0
M  V30 65 H  18.8781 38.2139 83.9646 0
M  V30 66 H  18.7009 38.6798 85.6414 0
M  V30 67 H  21.2334 37.6185 84.2702 0
M  V30 68 H  20.2986 36.7699 85.4790 0
M  V30 END ATOM
M  V30 BEGIN BOND
M  V30 1 1 1 2
M  V30 2 2 2 3
M  V30 3 1 2 11
M  V30 4 1 3 4
M  V30 5 1 3 43
M  V30 6 2 4 5
M  V30 7 1 4 44
M  V30 8 1 5 6
M  V30 9 1 5 10
M  V30 10 1 6 7
M  V30 11 1 6 8
M  V30 12 1 6 9
M  V30 13 2 10 11
M  V30 14 1 10 45
M  V30 15 1 11 12
M  V30 16 1 12 13
M  V30 17 1 12 46
M  V30 18 2 13 14
M  V30 19 1 13 15
M  V30 20 1 15 16
M  V30 21 1 15 47
M  V30 22 2 16 17
M  V30 23 1 16 21
M  V30 24 1 17 18
M  V30 25 1 17 48
M  V30 26 2 18 19
M  V30 27 1 18 49
M  V30 28 1 19 20
M  V30 29 1 19 23
M  V30 30 2 20 21
M  V30 31 1 20 50
M  V30 32 1 21 22
M  V30 33 1 23 24
M  V30 34 2 23 30
M  V30 35 1 24 25
M  V30 36 2 24 28
M  V30 37 1 25 26
M  V30 38 1 25 51
M  V30 39 1 25 52
M  V30 40 1 26 27
M  V30 41 1 27 53
M  V30 42 1 27 54
M  V30 43 1 27 55
M  V30 44 1 28 29
M  V30 45 1 28 36
M  V30 46 1 29 30
M  V30 47 1 29 31
M  V30 48 1 30 34
M  V30 49 2 31 32
M  V30 50 1 32 33
M  V30 51 1 32 56
M  V30 52 2 33 34
M  V30 53 1 34 35
M  V30 54 1 35 57
M  V30 55 1 35 58
M  V30 56 1 36 37
M  V30 57 1 36 59
M  V30 58 1 36 60
M  V30 59 1 37 38
M  V30 60 1 37 42
M  V30 61 1 38 39
M  V30 62 1 38 61
M  V30 63 1 38 62
M  V30 64 1 39 40
M  V30 65 1 39 63
M  V30 66 1 39 64
M  V30 67 1 40 41
M  V30 68 1 41 42
M  V30 69 1 41 65
M  V30 70 1 41 66
M  V30 71 1 42 67
M  V30 72 1 42 68
M  V30 END BOND
M  V30 END CTAB
M  END
> <s_m_entry_id>
768

> <s_m_entry_name>
result.1785

> <s_m_Source_Path>
D:\OneDrive - zju.edu.cn\DOC\A-Finished\LCK_VS\Planet\LCK-8617

> <s_m_Source_File>
glide-dock_SP_top1262_2_pv.maegz

> <i_m_Source_File_Index>
768

> <PLANET_affinity>
8.137

> <i_lp_mmshare_version>
54117

> <i_f3d_flags>
0

> <s_epik_input>
RmMxW2NIXVtjSF1jKEMoRikoRilGKVtjSF1jMVtOSF1DKD1PKVtOSF1jMltjSF1bY0hdYyhbY0hdYzJGKS1jKGMobjM0KWMoW05IMl0pbltjSF1uNCljKFtDSDJdT1tDSDNdKWMzW0NIMl1ONVtDSDJdW0NIMl1PW0NIMl1bQ0gyXTU=

> <s_epik_cmdline>
J2VwaWtfcHl0aG9uJywgJy1waCcsICc3LjAnLCAnLXRuJywgJzgnLCAnLW1hJywgJzUwMCcsICctaW1hZScsICc8aW5maWxlLm1hZT4nLCAnLW9tYWUnLCAnPG91dGZpbGUubWFlPic=

> <r_epik_Ionization_Penalty>
  0.0735

> <r_epik_Ionization_Penalty_Charging>
  0.0000

> <r_epik_Ionization_Penalty_Neutral>
  0.0735

> <r_epik_State_Penalty>
  0.0586

> <r_epik_Charging_Adjusted_Penalty>
0.0586169

> <i_epik_Tot_Q>
0

> <i_epik_Tot_abs_Q>
0

> <s_lp_Force_Field>
S-OPLS

> <r_lp_Energy>
54.7223

> <b_lp_Chiralities_Consistent>
1

> <s_lp_Variant>
O=C(NC1=CC(C(F)(F)F)=CC=C1F)NC2=CC=C(C3=C4C(N)=NC=NN4C(CN5CCOCC5)=C3COC)C=C2F-1

> <s_i_glide_gridfile>
glide-grid_1

> <i_i_glide_lignum>
1177

> <i_i_glide_rotatable_bonds>
10

> <r_i_docking_score>
-7.72018050483856

> <r_i_glide_ligand_efficiency>
-0.183813821543775

> <r_i_glide_ligand_efficiency_sa>
-0.638941740588514

> <r_i_glide_ligand_efficiency_ln>
-1.62953120982629

> <r_i_glide_gscore>
-7.77878050483856

> <r_i_glide_lipo>
-2.46807629301485

> <r_i_glide_hbond>
-0.554111611432532

> <r_i_glide_metal>
0

> <r_i_glide_rewards>
-1.72648977970765

> <r_i_glide_evdw>
-44.726879119873

> <r_i_glide_ecoul>
-6.46286153793335

> <r_i_glide_erotb>
0.25864998184841

> <r_i_glide_esite>
-0.0829796158482822

> <r_i_glide_emodel>
-71.9125288554604

> <r_i_glide_energy>
-51.1897406578064

> <r_i_glide_einternal>
8.92569732666016

> <i_i_glide_confnum>
188

> <i_i_glide_posenum>
114

> <r_i_glide_eff_state_penalty>
0.0586

> <s_m_subgroup_title>
glide-dock_SP_top1262_2_pv

> <s_m_subgroupid>
glide-dock_SP_top1262_2_pv

> <b_m_subgroup_collapsed>
0

$$$$
O=C(N1CCCO)N(C)C2=C(N(CC3=CC=C(Cl)C=C3)C(OC4=CC=CC(Cl)=C4)=N2)C1=O
                    3D
 Schrodinger Suite 2021-3.
  0  0  0     0  0            999 V3000
M  V30 BEGIN CTAB
M  V30 COUNTS 52 55 0 0 0
M  V30 BEGIN ATOM
M  V30 1 O  30.2898 35.1568 82.0435 0
M  V30 2 C  30.0175 36.5108 82.3275 0
M  V30 3 C  28.5006 36.7566 82.4435 0
M  V30 4 C  27.8472 36.0949 83.6435 0
M  V30 5 N  26.4111 36.4229 83.8975 0
M  V30 6 C  25.4958 35.6225 83.2258 0
M  V30 7 O  25.8196 34.7268 82.4435 0
M  V30 8 N  24.1743 35.8891 83.4877 0
M  V30 9 C  23.1476 35.1566 82.7303 0
M  V30 10 C  26.1844 37.4142 84.8408 0
M  V30 11 O  27.0779 38.0419 85.4113 0
M  V30 12 C  24.7639 37.5679 85.0747 0
M  V30 13 C  23.7926 36.8150 84.4435 0
M  V30 14 N  24.0702 38.4051 85.9230 0
M  V30 15 C  24.6031 39.3996 86.8511 0
M  V30 16 C  25.0739 40.6884 86.1863 0
M  V30 17 C  24.1605 41.5246 85.5358 0
M  V30 18 C  24.5962 42.7188 84.9638 0
M  V30 19 C  25.9428 43.0730 85.0434 0
M  V30 20 Cl 26.4855 44.5662 84.3699 0
M  V30 21 C  26.8588 42.2363 85.6760 0
M  V30 22 C  26.4241 41.0454 86.2499 0
M  V30 23 C  22.7437 38.0865 85.7146 0
M  V30 24 N  22.5685 37.1238 84.8351 0
M  V30 25 O  21.7298 38.7074 86.4079 0
M  V30 26 C  20.4087 38.4043 86.1637 0
M  V30 27 C  19.6587 37.8186 87.1829 0
M  V30 28 C  18.2976 37.5686 87.0110 0
M  V30 29 C  17.6845 37.8871 85.8003 0
M  V30 30 C  18.4365 38.4304 84.7587 0
M  V30 31 Cl 17.6829 38.7566 83.2436 0
M  V30 32 C  19.7939 38.7051 84.9434 0
M  V30 33 H  30.4595 35.0554 81.0972 0
M  V30 34 H  30.4998 36.7411 83.2789 0
M  V30 35 H  30.4828 37.1539 81.5802 0
M  V30 36 H  28.3297 37.8276 82.5213 0
M  V30 37 H  28.0064 36.3566 81.5623 0
M  V30 38 H  27.9840 35.0188 83.5265 0
M  V30 39 H  28.4647 36.3566 84.5053 0
M  V30 40 H  22.1324 35.3898 83.0530 0
M  V30 41 H  23.2159 35.3887 81.6665 0
M  V30 42 H  23.2829 34.0802 82.8437 0
M  V30 43 H  23.8321 39.6421 87.5837 0
M  V30 44 H  25.4102 38.9305 87.4161 0
M  V30 45 H  23.1142 41.2591 85.4823 0
M  V30 46 H  23.8923 43.3742 84.4686 0
M  V30 47 H  27.9017 42.5143 85.7291 0
M  V30 48 H  27.1404 40.4036 86.7428 0
M  V30 49 H  20.1454 37.5569 88.1049 0
M  V30 50 H  17.7183 37.1318 87.8114 0
M  V30 51 H  16.6299 37.6972 85.6682 0
M  V30 52 H  20.3739 39.1493 84.1488 0
M  V30 END ATOM
M  V30 BEGIN BOND
M  V30 1 1 1 2
M  V30 2 1 1 33
M  V30 3 1 2 3
M  V30 4 1 2 34
M  V30 5 1 2 35
M  V30 6 1 3 4
M  V30 7 1 3 36
M  V30 8 1 3 37
M  V30 9 1 4 5
M  V30 10 1 4 38
M  V30 11 1 4 39
M  V30 12 1 5 6
M  V30 13 1 5 10
M  V30 14 2 6 7
M  V30 15 1 6 8
M  V30 16 1 8 9
M  V30 17 1 8 13
M  V30 18 1 9 40
M  V30 19 1 9 41
M  V30 20 1 9 42
M  V30 21 2 10 11
M  V30 22 1 10 12
M  V30 23 2 12 13
M  V30 24 1 12 14
M  V30 25 1 13 24
M  V30 26 1 14 15
M  V30 27 1 14 23
M  V30 28 1 15 16
M  V30 29 1 15 43
M  V30 30 1 15 44
M  V30 31 2 16 17
M  V30 32 1 16 22
M  V30 33 1 17 18
M  V30 34 1 17 45
M  V30 35 2 18 19
M  V30 36 1 18 46
M  V30 37 1 19 20
M  V30 38 1 19 21
M  V30 39 2 21 22
M  V30 40 1 21 47
M  V30 41 1 22 48
M  V30 42 2 23 24
M  V30 43 1 23 25
M  V30 44 1 25 26
M  V30 45 2 26 27
M  V30 46 1 26 32
M  V30 47 1 27 28
M  V30 48 1 27 49
M  V30 49 2 28 29
M  V30 50 1 28 50
M  V30 51 1 29 30
M  V30 52 1 29 51
M  V30 53 1 30 31
M  V30 54 2 30 32
M  V30 55 1 32 52
M  V30 END BOND
M  V30 END CTAB
M  END
> <s_m_entry_id>
773

> <s_m_entry_name>
result.1186

> <s_m_Source_Path>
D:\OneDrive - zju.edu.cn\DOC\A-Finished\LCK_VS\Planet\LCK-8617

> <s_m_Source_File>
glide-dock_SP_top1262_2_pv.maegz

> <i_m_Source_File_Index>
773

> <PLANET_affinity>
7.272

> <i_lp_mmshare_version>
54117

> <i_f3d_flags>
0

> <s_epik_input>
W09IXVtDSDJdW0NIMl1bQ0gyXW4oYzE9TyljKD1PKW4oW0NIM10pYyhjMTIpbmMoT2MzW2NIXVtjSF1bY0hdYyhDbClbY0hdMyluMltDSDJdYzRbY0hdW2NIXWMoQ2wpW2NIXVtjSF00

> <s_epik_cmdline>
J2VwaWtfcHl0aG9uJywgJy1waCcsICc3LjAnLCAnLXRuJywgJzgnLCAnLW1hJywgJzUwMCcsICctaW1hZScsICc8aW5maWxlLm1hZT4nLCAnLW9tYWUnLCAnPG91dGZpbGUubWFlPic=

> <r_epik_Ionization_Penalty>
  0.0000

> <r_epik_Ionization_Penalty_Charging>
  0.0000

> <r_epik_Ionization_Penalty_Neutral>
  0.0000

> <r_epik_State_Penalty>
  0.0000

> <r_epik_Charging_Adjusted_Penalty>
2.25841e-09

> <i_epik_Tot_Q>
0

> <i_epik_Tot_abs_Q>
0

> <s_lp_Force_Field>
S-OPLS

> <r_lp_Energy>
39.0194

> <b_lp_Chiralities_Consistent>
1

> <s_lp_Variant>
O=C(N1CCCO)N(C)C2=C(N(CC3=CC=C(Cl)C=C3)C(OC4=CC=CC(Cl)=C4)=N2)C1=O-1

> <s_i_glide_gridfile>
glide-grid_1

> <i_i_glide_lignum>
2283

> <i_i_glide_rotatable_bonds>
8

> <r_i_docking_score>
-7.71759601711695

> <r_i_glide_ligand_efficiency>
-0.241174875534905

> <r_i_glide_ligand_efficiency_sa>
-0.765682501380263

> <r_i_glide_ligand_efficiency_ln>
-1.72818012195448

> <r_i_glide_gscore>
-7.71759601711695

> <r_i_glide_lipo>
-2.23879771812669

> <r_i_glide_hbond>
-0.608

> <r_i_glide_metal>
0

> <r_i_glide_rewards>
-2.51472396387355

> <r_i_glide_evdw>
-41.3507232666016

> <r_i_glide_ecoul>
-6.10449600219727

> <r_i_glide_erotb>
0.627136228542963

> <r_i_glide_esite>
0

> <r_i_glide_emodel>
-68.9190644295092

> <r_i_glide_energy>
-47.4552192687988

> <r_i_glide_einternal>
2.73814940452576

> <i_i_glide_confnum>
174

> <i_i_glide_posenum>
171

> <r_i_glide_eff_state_penalty>
0

> <r_lp_tautomer_probability>
1

> <s_m_subgroup_title>
glide-dock_SP_top1262_2_pv

> <s_m_subgroupid>
glide-dock_SP_top1262_2_pv

> <b_m_subgroup_collapsed>
0

$$$$
C[C@H]([C@@H](O)[C@@H](C)[C@H](C)OC1=O)/C=C/C=C/C=C/C=C/C=C/C=C/C=C/[C@H](O[C...
                    3D
 Schrodinger Suite 2021-3.
  0  0  0     0  0            999 V3000
M  V30 BEGIN CTAB
M  V30 COUNTS 138 140 0 0 0
M  V30 BEGIN ATOM
M  V30 1 C  36.6545 41.4486 84.9258 0
M  V30 2 C  35.1751 41.6597 84.4849 0 CFG=1
M  V30 3 O  34.9900 41.4261 83.1074 0
M  V30 4 C  34.0995 40.8987 85.3040 0
M  V30 5 C  32.6457 41.4010 85.0957 0 CFG=1
M  V30 6 O  32.2625 41.1556 83.7521 0
M  V30 7 C  31.6062 40.8197 86.1028 0 CFG=2
M  V30 8 O  31.7114 39.4086 86.1880 0
M  V30 9 C  30.1363 41.2119 85.7920 0
M  V30 10 C  29.0816 40.6432 86.7758 0
M  V30 11 C  27.6211 41.0976 86.5257 0 CFG=1
M  V30 12 O  27.2763 40.8281 85.1781 0
M  V30 13 C  26.6359 40.3909 87.4952 0
M  V30 14 C  25.1283 40.7213 87.3479 0 CFG=1
M  V30 15 O  24.7227 40.3556 86.0482 0
M  V30 16 C  24.2994 39.9562 88.4084 0
M  V30 17 C  22.7769 40.1395 88.3671 0
M  V30 18 O  22.1873 40.7258 89.2801 0
M  V30 19 O  22.1886 39.5635 87.2853 0
M  V30 20 C  20.7995 39.7503 86.9937 0 CFG=1
M  V30 21 C  20.5823 41.2173 86.5629 0
M  V30 22 C  20.3345 38.7060 85.9161 0 CFG=2
M  V30 23 C  19.0746 39.1555 85.1405 0
M  V30 24 C  20.1238 37.2529 86.4528 0 CFG=2
M  V30 25 O  19.3577 37.3034 87.6438 0
M  V30 26 C  21.4179 36.4007 86.6088 0 CFG=1
M  V30 27 C  21.1780 35.0776 87.3738 0
M  V30 28 C  22.0207 36.0952 85.2374 0
M  V30 29 C  23.2387 36.3833 84.7478 0
M  V30 30 C  24.2917 37.1137 85.4299 0
M  V30 31 C  25.5577 37.2452 84.9900 0
M  V30 32 C  26.1196 36.6353 83.7852 0
M  V30 33 C  27.3930 36.7582 83.3649 0
M  V30 34 C  28.4121 37.5797 84.0016 0
M  V30 35 C  29.7304 37.5479 83.7414 0
M  V30 36 C  30.4125 36.6197 82.8449 0
M  V30 37 C  31.6879 36.7512 82.4276 0
M  V30 38 C  32.5405 37.8974 82.7223 0
M  V30 39 C  33.8421 38.0342 82.4121 0
M  V30 40 C  34.6917 37.0091 81.8319 0
M  V30 41 C  35.8182 37.2454 81.1381 0
M  V30 42 C  36.3923 38.5970 80.6962 0 CFG=1
M  V30 43 C  37.8515 38.8197 81.1471 0
M  V30 44 C  38.0432 38.8028 82.6868 0 CFG=2
M  V30 45 O  37.4025 39.9837 83.1972 0
M  V30 46 C  39.5290 38.7686 83.1454 0 CFG=2
M  V30 47 C  40.2255 37.4696 82.6463 0
M  V30 48 O  41.1755 37.5992 81.8408 0 CHG=-1
M  V30 49 O  39.7745 36.3625 83.0233 0
M  V30 50 C  39.5972 38.8829 84.6899 0 CFG=1
M  V30 51 O  40.9201 39.0017 85.1791 0
M  V30 52 C  38.7773 40.0917 85.1769 0
M  V30 53 C  37.3472 40.1055 84.5978 0 CFG=1
M  V30 54 O  36.6372 39.0945 85.1898 0
M  V30 55 O  36.2849 38.8014 79.2744 0
M  V30 56 C  36.6870 37.7767 78.4029 0 CFG=2
M  V30 57 O  37.3255 38.2895 77.2556 0
M  V30 58 C  37.8656 37.2656 76.3956 0 CFG=2
M  V30 59 C  38.5579 37.9626 75.2161 0
M  V30 60 C  36.7822 36.2379 75.9410 0 CFG=1
M  V30 61 O  37.3496 35.1588 75.2128 0
M  V30 62 C  36.0044 35.7569 77.1935 0 CFG=2
M  V30 63 N  34.8832 34.7570 76.8433 0 CHG=1
M  V30 64 C  35.4460 36.9697 77.9726 0 CFG=2
M  V30 65 O  34.5364 37.7917 77.2435 0
M  V30 66 H  36.7311 41.6191 86.0003 0
M  V30 67 H  37.2543 42.2331 84.4634 0
M  V30 68 H  34.9782 42.7236 84.6301 0
M  V30 69 H  34.0370 41.4396 82.9526 0
M  V30 70 H  34.3452 40.9943 86.3628 0
M  V30 71 H  34.1397 39.8310 85.0854 0
M  V30 72 H  32.6460 42.4841 85.2233 0
M  V30 73 H  31.6833 41.8803 83.4778 0
M  V30 74 H  31.8583 41.2056 87.0922 0
M  V30 75 H  31.2861 39.1278 87.0074 0
M  V30 76 H  29.8898 40.8755 84.7843 0
M  V30 77 H  30.0596 42.3000 85.7770 0
M  V30 78 H  29.3643 40.9135 87.7943 0
M  V30 79 H  29.1187 39.5524 86.7368 0
M  V30 80 H  27.5531 42.1766 86.6747 0
M  V30 81 H  27.9088 41.2807 84.6145 0
M  V30 82 H  26.9412 40.6315 88.5148 0
M  V30 83 H  26.7659 39.3117 87.3972 0
M  V30 84 H  24.9764 41.7942 87.4676 0
M  V30 85 H  25.4643 40.5579 85.4590 0
M  V30 86 H  24.6399 40.2475 89.4012 0
M  V30 87 H  24.5058 38.8887 88.3243 0
M  V30 88 H  20.2225 39.5937 87.9075 0
M  V30 89 H  19.5220 41.4383 86.4441 0
M  V30 90 H  20.9487 41.9316 87.3004 0
M  V30 91 H  21.0868 41.4355 85.6210 0
M  V30 92 H  21.1235 38.6652 85.1633 0
M  V30 93 H  18.2324 39.3504 85.8085 0
M  V30 94 H  19.2831 40.0650 84.5784 0
M  V30 95 H  18.7583 38.4095 84.4111 0
M  V30 96 H  19.4909 36.7058 85.7518 0
M  V30 97 H  18.5317 37.7577 87.4515 0
M  V30 98 H  22.1309 36.9711 87.2007 0
M  V30 99 H  22.1091 34.5322 87.5276 0
M  V30 100 H  20.7410 35.2332 88.3569 0
M  V30 101 H  20.4972 34.4111 86.8430 0
M  V30 102 H  21.3654 35.5576 84.5742 0
M  V30 103 H  23.4244 36.0495 83.7368 0
M  V30 104 H  24.0465 37.6232 86.3509 0
M  V30 105 H  26.2092 37.8374 85.6142 0
M  V30 106 H  25.4855 36.0009 83.1849 0
M  V30 107 H  27.6631 36.2221 82.4659 0
M  V30 108 H  28.0943 38.3177 84.7214 0
M  V30 109 H  30.3319 38.2522 84.2940 0
M  V30 110 H  29.8818 35.7367 82.5196 0
M  V30 111 H  32.0773 35.9719 81.7884 0
M  V30 112 H  32.0835 38.7537 83.1886 0
M  V30 113 H  34.2985 38.9738 82.6770 0
M  V30 114 H  34.4248 35.9773 82.0116 0
M  V30 115 H  36.3725 36.3835 80.7910 0
M  V30 116 H  35.7966 39.4008 81.1296 0
M  V30 117 H  38.4826 38.0619 80.6846 0
M  V30 118 H  38.2106 39.7730 80.7579 0
M  V30 119 H  37.5328 37.9244 83.0899 0
M  V30 120 H  40.0559 39.6173 82.7040 0
M  V30 121 H  39.1858 37.9753 85.1396 0
M  V30 122 H  40.8793 39.3628 86.0665 0
M  V30 123 H  38.7264 40.1173 86.2674 0
M  V30 124 H  39.2738 41.0125 84.8642 0
M  V30 125 H  35.7619 39.1010 84.7937 0
M  V30 126 H  37.4551 37.1722 78.8891 0
M  V30 127 H  38.6367 36.7312 76.9543 0
M  V30 128 H  38.9500 37.2378 74.4995 0
M  V30 129 H  39.4005 38.5618 75.5642 0
M  V30 130 H  37.8667 38.6251 74.6895 0
M  V30 131 H  36.0981 36.7474 75.2593 0
M  V30 132 H  36.7836 34.9454 74.4636 0
M  V30 133 H  36.6692 35.1715 77.8341 0
M  V30 134 H  34.2109 35.1842 76.2166 0
M  V30 135 H  35.2722 33.9380 76.3940 0
M  V30 136 H  34.9126 36.6362 78.8614 0
M  V30 137 H  33.9935 37.2642 76.6421 0
M  V30 138 H  34.3897 34.4585 77.6733 0
M  V30 END ATOM
M  V30 BEGIN BOND
M  V30 1 1 1 2
M  V30 2 1 1 53
M  V30 3 1 1 66
M  V30 4 1 1 67
M  V30 5 1 2 3
M  V30 6 1 2 4
M  V30 7 1 2 68
M  V30 8 1 3 69
M  V30 9 1 4 5
M  V30 10 1 4 70
M  V30 11 1 4 71
M  V30 12 1 5 6
M  V30 13 1 5 7
M  V30 14 1 5 72
M  V30 15 1 6 73
M  V30 16 1 7 8
M  V30 17 1 7 9
M  V30 18 1 7 74
M  V30 19 1 8 75
M  V30 20 1 9 10
M  V30 21 1 9 76
M  V30 22 1 9 77
M  V30 23 1 10 11
M  V30 24 1 10 78
M  V30 25 1 10 79
M  V30 26 1 11 12
M  V30 27 1 11 13
M  V30 28 1 11 80
M  V30 29 1 12 81
M  V30 30 1 13 14
M  V30 31 1 13 82
M  V30 32 1 13 83
M  V30 33 1 14 15
M  V30 34 1 14 16
M  V30 35 1 14 84
M  V30 36 1 15 85
M  V30 37 1 16 17
M  V30 38 1 16 86
M  V30 39 1 16 87
M  V30 40 2 17 18
M  V30 41 1 17 19
M  V30 42 1 19 20
M  V30 43 1 20 21
M  V30 44 1 20 22
M  V30 45 1 20 88
M  V30 46 1 21 89
M  V30 47 1 21 90
M  V30 48 1 21 91
M  V30 49 1 22 23
M  V30 50 1 22 24
M  V30 51 1 22 92
M  V30 52 1 23 93
M  V30 53 1 23 94
M  V30 54 1 23 95
M  V30 55 1 24 25
M  V30 56 1 24 26
M  V30 57 1 24 96
M  V30 58 1 25 97
M  V30 59 1 26 27
M  V30 60 1 26 28
M  V30 61 1 26 98
M  V30 62 1 27 99
M  V30 63 1 27 100
M  V30 64 1 27 101
M  V30 65 2 28 29
M  V30 66 1 28 102
M  V30 67 1 29 30
M  V30 68 1 29 103
M  V30 69 2 30 31
M  V30 70 1 30 104
M  V30 71 1 31 32
M  V30 72 1 31 105
M  V30 73 2 32 33
M  V30 74 1 32 106
M  V30 75 1 33 34
M  V30 76 1 33 107
M  V30 77 2 34 35
M  V30 78 1 34 108
M  V30 79 1 35 36
M  V30 80 1 35 109
M  V30 81 2 36 37
M  V30 82 1 36 110
M  V30 83 1 37 38
M  V30 84 1 37 111
M  V30 85 2 38 39
M  V30 86 1 38 112
M  V30 87 1 39 40
M  V30 88 1 39 113
M  V30 89 2 40 41
M  V30 90 1 40 114
M  V30 91 1 41 42
M  V30 92 1 41 115
M  V30 93 1 42 43
M  V30 94 1 42 55
M  V30 95 1 42 116
M  V30 96 1 43 44
M  V30 97 1 43 117
M  V30 98 1 43 118
M  V30 99 1 44 45
M  V30 100 1 44 46
M  V30 101 1 44 119
M  V30 102 1 45 53
M  V30 103 1 46 47
M  V30 104 1 46 50
M  V30 105 1 46 120
M  V30 106 1 47 48
M  V30 107 2 47 49
M  V30 108 1 50 51
M  V30 109 1 50 52
M  V30 110 1 50 121
M  V30 111 1 51 122
M  V30 112 1 52 53
M  V30 113 1 52 123
M  V30 114 1 52 124
M  V30 115 1 53 54
M  V30 116 1 54 125
M  V30 117 1 55 56
M  V30 118 1 56 57
M  V30 119 1 56 64
M  V30 120 1 56 126
M  V30 121 1 57 58
M  V30 122 1 58 59
M  V30 123 1 58 60
M  V30 124 1 58 127
M  V30 125 1 59 128
M  V30 126 1 59 129
M  V30 127 1 59 130
M  V30 128 1 60 61
M  V30 129 1 60 62
M  V30 130 1 60 131
M  V30 131 1 61 132
M  V30 132 1 62 63
M  V30 133 1 62 64
M  V30 134 1 62 133
M  V30 135 1 63 134
M  V30 136 1 63 135
M  V30 137 1 63 138
M  V30 138 1 64 65
M  V30 139 1 64 136
M  V30 140 1 65 137
M  V30 END BOND
M  V30 END CTAB
M  END
> <s_m_entry_id>
781

> <s_m_entry_name>
result.5226

> <s_m_Source_Path>
D:\OneDrive - zju.edu.cn\DOC\A-Finished\LCK_VS\Planet\LCK-8617

> <s_m_Source_File>
glide-dock_SP_top1262_2_pv.maegz

> <i_m_Source_File_Index>
781

> <PLANET_affinity>
10.008

> <i_lp_mmshare_version>
54117

> <i_f3d_flags>
0

> <s_epik_input>
W09IXVtDQF0xMltDSDJdW0NAQEhdKFtPSF0pW0NIMl1bQ0BASF0oW09IXSlbQ0BIXShbT0hdKVtDSDJdW0NIMl1bQ0BASF0oW09IXSlbQ0gyXVtDQEBIXShbT0hdKVtDSDJdQyg9TylPW0NAQEhdKFtDSDNdKVtDQEhdKFtDSDNdKVtDQEhdKFtPSF0pW0NAQEhdKFtDSDNdKS9bQ0hdPVtDSF1cW0NIXT1bQ0hdL1tDSF09W0NIXVxbQ0hdPVtDSF0vW0NIXT1bQ0hdXFtDSF09W0NIXS9bQ0hdPVtDSF1cW0NAQEhdKFtDSDJdW0NASF0oTzEpW0NASF0oQyg9TylbT0hdKVtDQEBIXShbT0hdKVtDSDJdMilPW0NAQEhdM09bQ0BIXShbQ0gzXSlbQ0BASF0oW09IXSlbQ0BIXShbTkgyXSlbQ0BASF0zW09IXQ==

> <s_epik_cmdline>
J2VwaWtfcHl0aG9uJywgJy1waCcsICc3LjAnLCAnLXRuJywgJzgnLCAnLW1hJywgJzUwMCcsICctaW1hZScsICc8aW5maWxlLm1hZT4nLCAnLW9tYWUnLCAnPG91dGZpbGUubWFlPic=

> <r_epik_Ionization_Penalty>
  0.0446

> <r_epik_Ionization_Penalty_Charging>
  0.0446

> <r_epik_Ionization_Penalty_Neutral>
  0.0000

> <r_epik_State_Penalty>
  0.0372

> <r_epik_Charging_Adjusted_Penalty>
0.0818434

> <i_epik_Tot_Q>
0

> <i_epik_Tot_abs_Q>
2

> <s_epik_Chemistry_Notes>
This compound has an ester and may undergo hydrolysis at high or low pH. This compound contains an acetal/aminal-like group ( X-CH(R)-Y where X, Y are N, S, or O) that may be acid/base labile, releasing an aldehyde.

> <s_lp_Force_Field>
S-OPLS

> <r_lp_Energy>
29.6194

> <b_lp_Chiralities_Consistent>
1

> <s_lp_Variant>
C[C@H]([C@@H](O)[C@@H](C)[C@H](C)OC1=O)/C=C/C=C/C=C/C=C/C=C/C=C/C=C/[C@H](O[C...-1

> <s_i_glide_gridfile>
glide-grid_1

> <i_i_glide_lignum>
259

> <i_i_glide_rotatable_bonds>
13

> <r_i_docking_score>
-7.71235233175026

> <r_i_glide_ligand_efficiency>
-0.118651574334619

> <r_i_glide_ligand_efficiency_sa>
-0.47706544056053

> <r_i_glide_ligand_efficiency_ln>
-1.49048610578887

> <r_i_glide_gscore>
-7.74955233175026

> <r_i_glide_lipo>
-2.93990627776026

> <r_i_glide_hbond>
0

> <r_i_glide_metal>
0

> <r_i_glide_rewards>
-2.65533308625991e-06

> <r_i_glide_evdw>
-52.8784599304199

> <r_i_glide_ecoul>
-14.6393260955811

> <r_i_glide_erotb>
0.0517789811709495

> <r_i_glide_esite>
-0.0216004689697101

> <r_i_glide_emodel>
-94.9346999745911

> <r_i_glide_energy>
-67.517786026001

> <r_i_glide_einternal>
11.7138776779175

> <i_i_glide_confnum>
4

> <i_i_glide_posenum>
274

> <r_i_glide_eff_state_penalty>
0.0372

> <s_m_subgroup_title>
glide-dock_SP_top1262_2_pv

> <s_m_subgroupid>
glide-dock_SP_top1262_2_pv

> <b_m_subgroup_collapsed>
0

$$$$
O=S(NC1=CC=C(F)C(C(C2=CNC3=NC=C(C4=CN=C(C5CC5)N=C4)C=C32)=O)=C1F)(N(CC)C)=O
                    3D
 Schrodinger Suite 2021-3.
  0  0  0     0  0            999 V3000
M  V30 BEGIN CTAB
M  V30 COUNTS 57 61 0 0 0
M  V30 BEGIN ATOM
M  V30 1 C  26.1788 40.8116 91.8523 0
M  V30 2 C  25.4468 41.3111 90.5930 0
M  V30 3 N  24.0450 40.8083 90.4840 0 CFG=1
M  V30 4 C  23.1220 41.2682 91.5520 0
M  V30 5 S  23.3300 40.7293 88.8496 0
M  V30 6 O  22.0802 39.9769 89.0291 0
M  V30 7 O  23.2053 42.1357 88.4535 0
M  V30 8 N  24.4089 39.8756 88.0850 0 CHG=-1
M  V30 9 C  25.1778 40.2356 87.0001 0
M  V30 10 C  24.9768 41.3795 86.2064 0
M  V30 11 C  25.7702 41.6514 85.0962 0
M  V30 12 C  26.7694 40.7623 84.7217 0
M  V30 13 F  27.5264 41.0468 83.6399 0
M  V30 14 C  26.9799 39.5939 85.4566 0
M  V30 15 C  26.2252 39.3663 86.6196 0
M  V30 16 F  26.4695 38.2409 87.3473 0
M  V30 17 C  27.9826 38.6067 84.9738 0
M  V30 18 O  29.1774 38.7413 85.2442 0
M  V30 19 C  27.5324 37.5107 84.1054 0
M  V30 20 C  28.3427 36.7814 83.2441 0
M  V30 21 N  27.5958 35.8606 82.5498 0
M  V30 22 C  26.2061 36.9469 83.9549 0
M  V30 23 C  26.2899 35.9227 82.9699 0
M  V30 24 C  24.9359 37.1524 84.5240 0
M  V30 25 C  23.8594 36.3564 84.1252 0
M  V30 26 C  24.0866 35.3962 83.1300 0
M  V30 27 N  25.2859 35.1568 82.5332 0
M  V30 28 C  22.5202 36.5694 84.7357 0
M  V30 29 C  22.3555 36.9085 86.0900 0
M  V30 30 N  21.1480 37.1632 86.6526 0
M  V30 31 C  20.0724 37.0843 85.8230 0
M  V30 32 N  20.1085 36.7568 84.5045 0
M  V30 33 C  21.3381 36.4968 83.9900 0
M  V30 34 C  18.6994 37.4138 86.4011 0
M  V30 35 C  18.3138 37.0304 87.8219 0
M  V30 36 C  18.5364 38.4779 87.4763 0
M  V30 37 H  27.2159 41.1531 91.8481 0
M  V30 38 H  26.1873 39.7212 91.9048 0
M  V30 39 H  25.7260 41.1913 92.7678 0
M  V30 40 H  25.4384 42.3995 90.5310 0
M  V30 41 H  26.0109 40.9667 89.7284 0
M  V30 42 H  23.4917 40.9774 92.5354 0
M  V30 43 H  22.9990 42.3505 91.4965 0
M  V30 44 H  22.1417 40.8134 91.4131 0
M  V30 45 H  24.1834 42.0767 86.4015 0
M  V30 46 H  25.5948 42.5455 84.5170 0
M  V30 47 H  29.4047 36.8653 83.0475 0
M  V30 48 H  27.9839 35.2569 81.8347 0
M  V30 49 H  24.7708 37.9159 85.2597 0
M  V30 50 H  23.2761 34.7601 82.7962 0
M  V30 51 H  23.2019 37.0035 86.7517 0
M  V30 52 H  21.3735 36.2501 82.9400 0
M  V30 53 H  17.8957 37.3626 85.6635 0
M  V30 54 H  17.2948 36.6880 88.0068 0
M  V30 55 H  19.0466 36.5100 88.4412 0
M  V30 56 H  19.4266 38.9874 87.8426 0
M  V30 57 H  17.6835 39.1518 87.4002 0
M  V30 END ATOM
M  V30 BEGIN BOND
M  V30 1 1 1 2
M  V30 2 1 1 37
M  V30 3 1 1 38
M  V30 4 1 1 39
M  V30 5 1 2 3
M  V30 6 1 2 40
M  V30 7 1 2 41
M  V30 8 1 3 4
M  V30 9 1 3 5
M  V30 10 1 4 42
M  V30 11 1 4 43
M  V30 12 1 4 44
M  V30 13 2 5 6
M  V30 14 2 5 7
M  V30 15 1 5 8
M  V30 16 1 8 9
M  V30 17 2 9 10
M  V30 18 1 9 15
M  V30 19 1 10 11
M  V30 20 1 10 45
M  V30 21 2 11 12
M  V30 22 1 11 46
M  V30 23 1 12 13
M  V30 24 1 12 14
M  V30 25 2 14 15
M  V30 26 1 14 17
M  V30 27 1 15 16
M  V30 28 2 17 18
M  V30 29 1 17 19
M  V30 30 2 19 20
M  V30 31 1 19 22
M  V30 32 1 20 21
M  V30 33 1 20 47
M  V30 34 1 21 23
M  V30 35 1 21 48
M  V30 36 2 22 23
M  V30 37 1 22 24
M  V30 38 1 23 27
M  V30 39 2 24 25
M  V30 40 1 24 49
M  V30 41 1 25 26
M  V30 42 1 25 28
M  V30 43 2 26 27
M  V30 44 1 26 50
M  V30 45 2 28 29
M  V30 46 1 28 33
M  V30 47 1 29 30
M  V30 48 1 29 51
M  V30 49 2 30 31
M  V30 50 1 31 32
M  V30 51 1 31 34
M  V30 52 2 32 33
M  V30 53 1 33 52
M  V30 54 1 34 35
M  V30 55 1 34 36
M  V30 56 1 34 53
M  V30 57 1 35 36
M  V30 58 1 35 54
M  V30 59 1 35 55
M  V30 60 1 36 56
M  V30 61 1 36 57
M  V30 END BOND
M  V30 END CTAB
M  END
> <s_m_entry_id>
784

> <s_m_entry_name>
result.7765

> <s_m_Source_Path>
D:\OneDrive - zju.edu.cn\DOC\A-Finished\LCK_VS\Planet\LCK-8617

> <s_m_Source_File>
glide-dock_SP_top1262_2_pv.maegz

> <i_m_Source_File_Index>
784

> <PLANET_affinity>
7.195

> <i_lp_mmshare_version>
54117

> <i_f3d_flags>
0

> <s_epik_input>
W0NIM11bQ0gyXU4oW0NIM10pUyg9TykoPU8pW05IXWMxW2NIXVtjSF1jKEYpYyhjMUYpQyg9TyljMltjSF1bbkhdYyhjMjMpbltjSF1jKFtjSF0zKS1jNFtjSF1uYyhuW2NIXTQpW0NIXTVbQ0gyXVtDSDJdNQ==

> <s_epik_cmdline>
J2VwaWtfcHl0aG9uJywgJy1waCcsICc3LjAnLCAnLXRuJywgJzgnLCAnLW1hJywgJzUwMCcsICctaW1hZScsICc8aW5maWxlLm1hZT4nLCAnLW9tYWUnLCAnPG91dGZpbGUubWFlPic=

> <r_epik_Ionization_Penalty>
  0.2777

> <r_epik_Ionization_Penalty_Charging>
  0.2772

> <r_epik_Ionization_Penalty_Neutral>
  0.0005

> <r_epik_State_Penalty>
  0.2696

> <r_epik_Charging_Adjusted_Penalty>
0.546787

> <i_epik_Tot_Q>
-1

> <i_epik_Tot_abs_Q>
1

> <s_lp_Force_Field>
S-OPLS

> <r_lp_Energy>
61.6333

> <b_lp_Chiralities_Consistent>
1

> <s_lp_Variant>
O=S(NC1=CC=C(F)C(C(C2=CNC3=NC=C(C4=CN=C(C5CC5)N=C4)C=C32)=O)=C1F)(N(CC)C)=O-1

> <s_i_glide_gridfile>
glide-grid_1

> <i_i_glide_lignum>
2387

> <i_i_glide_rotatable_bonds>
8

> <r_i_docking_score>
-7.71037675272426

> <r_i_glide_ligand_efficiency>
-0.214177132020118

> <r_i_glide_ligand_efficiency_sa>
-0.707197307462579

> <r_i_glide_ligand_efficiency_ln>
-1.6821958971378

> <r_i_glide_gscore>
-7.97997675272426

> <r_i_glide_lipo>
-2.73995680039505

> <r_i_glide_hbond>
-0.65146116200936

> <r_i_glide_metal>
0

> <r_i_glide_rewards>
-1.69261378733487

> <r_i_glide_evdw>
-46.0255889892578

> <r_i_glide_ecoul>
-6.03470706939697

> <r_i_glide_erotb>
0.383779241413932

> <r_i_glide_esite>
-0.0732387345264735

> <r_i_glide_emodel>
-73.8345811379282

> <r_i_glide_energy>
-52.0602960586548

> <r_i_glide_einternal>
5.59354305267334

> <i_i_glide_confnum>
182

> <i_i_glide_posenum>
303

> <r_i_glide_eff_state_penalty>
0.2696

> <r_lp_tautomer_probability>
1

> <s_m_subgroup_title>
glide-dock_SP_top1262_2_pv

> <s_m_subgroupid>
glide-dock_SP_top1262_2_pv

> <b_m_subgroup_collapsed>
0

$$$$
C[C@@H]1CNCCN1C2=C(NC(C3=CC=CC=C3OC)=O)C=C(C(N4C)=C2)N(C)C4=O
                    3D
 Schrodinger Suite 2021-3.
  0  0  0     0  0            999 V3000
M  V30 BEGIN CTAB
M  V30 COUNTS 58 61 0 0 0
M  V30 BEGIN ATOM
M  V30 1 C  23.0822 40.9409 88.0106 0
M  V30 2 C  23.7786 41.2776 86.6780 0 CFG=2
M  V30 3 C  23.6741 42.8009 86.3499 0
M  V30 4 N  22.3536 43.1567 85.6407 0 CHG=1
M  V30 5 C  22.1783 42.2422 84.4244 0
M  V30 6 C  22.0704 40.8026 84.9487 0
M  V30 7 N  23.3146 40.3720 85.6032 0
M  V30 8 C  23.9814 39.2108 85.2242 0
M  V30 9 C  25.3232 39.3181 84.8263 0
M  V30 10 C  25.9700 38.2034 84.2986 0
M  V30 11 C  25.3331 37.0015 84.1812 0
M  V30 12 N  27.2365 38.0311 83.7837 0
M  V30 13 C  28.2835 39.0486 83.7094 0
M  V30 14 C  27.4165 36.7590 83.3442 0
M  V30 15 O  28.4284 36.2728 82.8370 0
M  V30 16 N  26.2337 36.1380 83.5981 0
M  V30 17 C  25.9936 34.7433 83.2407 0
M  V30 18 C  23.3393 37.9481 85.1506 0
M  V30 19 C  24.0225 36.8354 84.6253 0
M  V30 20 N  22.0462 37.7981 85.6830 0
M  V30 21 C  21.0093 37.1462 85.1281 0
M  V30 22 O  21.0298 36.5584 84.0447 0
M  V30 23 C  19.7582 37.1931 85.9529 0
M  V30 24 C  19.7072 36.4996 87.1728 0
M  V30 25 C  18.5483 36.5170 87.9452 0
M  V30 26 C  17.4427 37.2514 87.5257 0
M  V30 27 C  17.4916 37.9570 86.3257 0
M  V30 28 C  18.6412 37.9327 85.5253 0
M  V30 29 O  18.6770 38.6249 84.3347 0
M  V30 30 C  17.7076 38.2205 83.3772 0
M  V30 31 H  23.5310 41.4905 88.8399 0
M  V30 32 H  22.0215 41.1885 87.9887 0
M  V30 33 H  23.1665 39.8803 88.2441 0
M  V30 34 H  24.8401 41.0868 86.8374 0
M  V30 35 H  24.4506 43.1162 85.6526 0
M  V30 36 H  23.7130 43.4379 87.2357 0
M  V30 37 H  22.3449 44.1254 85.3346 0
M  V30 38 H  23.0389 42.4059 83.7701 0
M  V30 39 H  21.2844 42.5722 83.8980 0
M  V30 40 H  21.8524 40.1457 84.1053 0
M  V30 41 H  21.2282 40.6785 85.6304 0
M  V30 42 H  25.8296 40.2713 84.8717 0
M  V30 43 H  29.2021 38.6675 83.2595 0
M  V30 44 H  27.9397 39.8977 83.1187 0
M  V30 45 H  28.5234 39.4049 84.7109 0
M  V30 46 H  26.7098 34.3744 82.5027 0
M  V30 47 H  26.0831 34.1189 84.1304 0
M  V30 48 H  24.9901 34.6230 82.8294 0
M  V30 49 H  23.5390 35.8717 84.5642 0
M  V30 50 H  21.8504 38.3346 86.5145 0
M  V30 51 H  20.5572 35.9223 87.5145 0
M  V30 52 H  18.5045 35.9581 88.8685 0
M  V30 53 H  16.5446 37.2807 88.1278 0
M  V30 54 H  16.6316 38.5380 86.0262 0
M  V30 55 H  17.8732 38.7551 82.4441 0
M  V30 56 H  17.7808 37.1549 83.1624 0
M  V30 57 H  16.6911 38.4364 83.7088 0
M  V30 58 H  21.5657 43.0574 86.2671 0
M  V30 END ATOM
M  V30 BEGIN BOND
M  V30 1 1 1 2
M  V30 2 1 1 31
M  V30 3 1 1 32
M  V30 4 1 1 33
M  V30 5 1 2 3
M  V30 6 1 2 7
M  V30 7 1 2 34
M  V30 8 1 3 4
M  V30 9 1 3 35
M  V30 10 1 3 36
M  V30 11 1 4 5
M  V30 12 1 4 37
M  V30 13 1 4 58
M  V30 14 1 5 6
M  V30 15 1 5 38
M  V30 16 1 5 39
M  V30 17 1 6 7
M  V30 18 1 6 40
M  V30 19 1 6 41
M  V30 20 1 7 8
M  V30 21 2 8 9
M  V30 22 1 8 18
M  V30 23 1 9 10
M  V30 24 1 9 42
M  V30 25 2 10 11
M  V30 26 1 10 12
M  V30 27 1 11 19
M  V30 28 1 11 16
M  V30 29 1 12 13
M  V30 30 1 12 14
M  V30 31 1 13 43
M  V30 32 1 13 44
M  V30 33 1 13 45
M  V30 34 2 14 15
M  V30 35 1 14 16
M  V30 36 1 16 17
M  V30 37 1 17 46
M  V30 38 1 17 47
M  V30 39 1 17 48
M  V30 40 2 18 19
M  V30 41 1 18 20
M  V30 42 1 19 49
M  V30 43 1 20 21
M  V30 44 1 20 50
M  V30 45 2 21 22
M  V30 46 1 21 23
M  V30 47 2 23 24
M  V30 48 1 23 28
M  V30 49 1 24 25
M  V30 50 1 24 51
M  V30 51 2 25 26
M  V30 52 1 25 52
M  V30 53 1 26 27
M  V30 54 1 26 53
M  V30 55 2 27 28
M  V30 56 1 27 54
M  V30 57 1 28 29
M  V30 58 1 29 30
M  V30 59 1 30 55
M  V30 60 1 30 56
M  V30 61 1 30 57
M  V30 END BOND
M  V30 END CTAB
M  END
> <s_m_entry_id>
790

> <s_m_entry_name>
result.4476

> <s_m_Source_Path>
D:\OneDrive - zju.edu.cn\DOC\A-Finished\LCK_VS\Planet\LCK-8617

> <s_m_Source_File>
glide-dock_SP_top1262_2_pv.maegz

> <i_m_Source_File_Index>
790

> <PLANET_affinity>
8.464

> <i_lp_mmshare_version>
54117

> <i_f3d_flags>
0

> <s_epik_input>
W0NIM11bQ0BASF0xW0NIMl1bTkhdW0NIMl1bQ0gyXU4xYyhbY0hdMiljKFtjSF1jKGMyMyluKFtDSDNdKWMoPU8pbjNbQ0gzXSlbTkhdQyg9TyljNFtjSF1bY0hdW2NIXVtjSF1jNE9bQ0gzXQ==

> <s_epik_cmdline>
J2VwaWtfcHl0aG9uJywgJy1waCcsICc3LjAnLCAnLXRuJywgJzgnLCAnLW1hJywgJzUwMCcsICctaW1hZScsICc8aW5maWxlLm1hZT4nLCAnLW9tYWUnLCAnPG91dGZpbGUubWFlPic=

> <r_epik_Ionization_Penalty>
  0.0086

> <r_epik_Ionization_Penalty_Charging>
  0.0086

> <r_epik_Ionization_Penalty_Neutral>
  0.0000

> <r_epik_State_Penalty>
  0.0065

> <r_epik_Charging_Adjusted_Penalty>
0.0150378

> <i_epik_Tot_Q>
1

> <i_epik_Tot_abs_Q>
1

> <s_lp_Force_Field>
S-OPLS

> <r_lp_Energy>
55.5326

> <b_lp_Chiralities_Consistent>
1

> <s_lp_Variant>
C[C@@H]1CNCCN1C2=C(NC(C3=CC=CC=C3OC)=O)C=C(C(N4C)=C2)N(C)C4=O-1

> <s_i_glide_gridfile>
glide-grid_1

> <i_i_glide_lignum>
821

> <i_i_glide_rotatable_bonds>
5

> <r_i_docking_score>
-7.70761663745686

> <r_i_glide_ligand_efficiency>
-0.256920554581895

> <r_i_glide_ligand_efficiency_sa>
-0.798311897739486

> <r_i_glide_ligand_efficiency_ln>
-1.75125448123983

> <r_i_glide_gscore>
-7.71411663745686

> <r_i_glide_lipo>
-2.95915799784425

> <r_i_glide_hbond>
-0.380433152788567

> <r_i_glide_metal>
0

> <r_i_glide_rewards>
-1.83785964239798

> <r_i_glide_evdw>
-45.7527770996094

> <r_i_glide_ecoul>
-4.31926870346069

> <r_i_glide_erotb>
0.467667685001109

> <r_i_glide_esite>
-0.0688043689275996

> <r_i_glide_emodel>
-72.7066061557542

> <r_i_glide_energy>
-50.0720458030701

> <r_i_glide_einternal>
9.77691268920898

> <i_i_glide_confnum>
124

> <i_i_glide_posenum>
174

> <r_i_glide_eff_state_penalty>
0.0065

> <r_lp_tautomer_probability>
1

> <s_m_subgroup_title>
glide-dock_SP_top1262_2_pv

> <s_m_subgroupid>
glide-dock_SP_top1262_2_pv

> <b_m_subgroup_collapsed>
0

$$$$
CC(C)OC1=CC=C(C2=CN3C(N=C2)=C(C4=CC=NC5=CC=CC=C45)C=N3)C=C1
                    3D
 Schrodinger Suite 2021-3.
  0  0  0     0  0            999 V3000
M  V30 BEGIN CTAB
M  V30 COUNTS 49 53 0 0 0
M  V30 BEGIN ATOM
M  V30 1 C  18.4830 38.8636 87.7445 0
M  V30 2 C  17.9722 37.4783 87.3265 0
M  V30 3 C  18.1908 36.3571 88.3657 0
M  V30 4 O  18.4532 37.1567 86.0241 0
M  V30 5 C  19.7928 36.9684 85.7594 0
M  V30 6 C  20.8145 36.9773 86.7150 0
M  V30 7 C  22.1296 36.8124 86.3349 0
M  V30 8 C  22.4610 36.6391 84.9940 0
M  V30 9 C  21.4448 36.5924 84.0399 0
M  V30 10 C  20.1189 36.7577 84.4243 0
M  V30 11 C  23.8777 36.5584 84.5972 0
M  V30 12 C  24.3253 35.6430 83.6434 0
M  V30 13 C  24.8260 37.4204 85.1638 0
M  V30 14 N  26.1387 37.4367 84.8329 0
M  V30 15 C  26.5412 36.5832 83.8841 0
M  V30 16 N  25.6499 35.6635 83.3128 0
M  V30 17 C  27.7832 36.3570 83.2376 0
M  V30 18 C  27.5124 35.2348 82.4485 0
M  V30 19 N  26.2548 34.8379 82.4443 0
M  V30 20 C  29.0878 37.0626 83.4176 0
M  V30 21 C  30.2459 36.2827 83.3991 0
M  V30 22 C  31.4808 36.8700 83.6453 0
M  V30 23 N  31.6382 38.1826 83.9287 0
M  V30 24 C  29.2255 38.4717 83.6439 0
M  V30 25 C  30.5327 38.9775 83.9340 0
M  V30 26 C  28.1487 39.4013 83.5790 0
M  V30 27 C  28.3445 40.7428 83.8801 0
M  V30 28 C  29.6045 41.2040 84.2245 0
M  V30 29 C  30.7020 40.3488 84.2334 0
M  V30 30 H  18.0830 39.1211 88.7213 0
M  V30 31 H  18.1069 39.6111 87.0454 0
M  V30 32 H  19.5627 38.9780 87.7896 0
M  V30 33 H  16.8905 37.5636 87.1987 0
M  V30 34 H  17.4798 36.4423 89.1918 0
M  V30 35 H  18.0832 35.3833 87.9013 0
M  V30 36 H  19.1624 36.3570 88.8433 0
M  V30 37 H  20.6494 37.1435 87.7614 0
M  V30 38 H  22.8829 36.8485 87.1017 0
M  V30 39 H  21.6826 36.4594 82.9937 0
M  V30 40 H  19.3359 36.7560 83.6803 0
M  V30 41 H  23.6973 34.9134 83.1500 0
M  V30 42 H  24.5323 38.1541 85.9015 0
M  V30 43 H  28.2489 34.7203 81.8440 0
M  V30 44 H  30.1957 35.2180 83.2247 0
M  V30 45 H  32.3787 36.2694 83.6436 0
M  V30 46 H  27.1671 39.0789 83.2772 0
M  V30 47 H  27.5146 41.4346 83.8462 0
M  V30 48 H  29.7383 42.2519 84.4542 0
M  V30 49 H  31.6857 40.7316 84.4657 0
M  V30 END ATOM
M  V30 BEGIN BOND
M  V30 1 1 1 2
M  V30 2 1 1 30
M  V30 3 1 1 31
M  V30 4 1 1 32
M  V30 5 1 2 3
M  V30 6 1 2 4
M  V30 7 1 2 33
M  V30 8 1 3 34
M  V30 9 1 3 35
M  V30 10 1 3 36
M  V30 11 1 4 5
M  V30 12 2 5 6
M  V30 13 1 5 10
M  V30 14 1 6 7
M  V30 15 1 6 37
M  V30 16 2 7 8
M  V30 17 1 7 38
M  V30 18 1 8 9
M  V30 19 1 8 11
M  V30 20 2 9 10
M  V30 21 1 9 39
M  V30 22 1 10 40
M  V30 23 2 11 12
M  V30 24 1 11 13
M  V30 25 1 12 16
M  V30 26 1 12 41
M  V30 27 2 13 14
M  V30 28 1 13 42
M  V30 29 1 14 15
M  V30 30 1 15 16
M  V30 31 2 15 17
M  V30 32 1 16 19
M  V30 33 1 17 18
M  V30 34 1 17 20
M  V30 35 2 18 19
M  V30 36 1 18 43
M  V30 37 2 20 21
M  V30 38 1 20 24
M  V30 39 1 21 22
M  V30 40 1 21 44
M  V30 41 2 22 23
M  V30 42 1 22 45
M  V30 43 1 23 25
M  V30 44 2 24 25
M  V30 45 1 24 26
M  V30 46 1 25 29
M  V30 47 2 26 27
M  V30 48 1 26 46
M  V30 49 1 27 28
M  V30 50 1 27 47
M  V30 51 2 28 29
M  V30 52 1 28 48
M  V30 53 1 29 49
M  V30 END BOND
M  V30 END CTAB
M  END
> <s_m_entry_id>
792

> <s_m_entry_name>
result.2786

> <s_m_Source_Path>
D:\OneDrive - zju.edu.cn\DOC\A-Finished\LCK_VS\Planet\LCK-8617

> <s_m_Source_File>
glide-dock_SP_top1262_2_pv.maegz

> <i_m_Source_File_Index>
792

> <PLANET_affinity>
7.381

> <i_lp_mmshare_version>
54117

> <i_f3d_flags>
0

> <s_epik_input>
W0NIM11bQ0hdKFtDSDNdKU9jMVtjSF1bY0hdYyhbY0hdW2NIXTEpLWMoW2NIXW4yKVtjSF1uKGMyMyluW2NIXWMzLWM0W2NIXVtjSF1uYyhjNDUpW2NIXVtjSF1bY0hdW2NIXTU=

> <s_epik_cmdline>
J2VwaWtfcHl0aG9uJywgJy1waCcsICc3LjAnLCAnLXRuJywgJzgnLCAnLW1hJywgJzUwMCcsICctaW1hZScsICc8aW5maWxlLm1hZT4nLCAnLW9tYWUnLCAnPG91dGZpbGUubWFlPic=

> <r_epik_Ionization_Penalty>
  0.0048

> <r_epik_Ionization_Penalty_Charging>
  0.0000

> <r_epik_Ionization_Penalty_Neutral>
  0.0048

> <r_epik_State_Penalty>
  0.0035

> <r_epik_Charging_Adjusted_Penalty>
0.00346479

> <i_epik_Tot_Q>
0

> <i_epik_Tot_abs_Q>
0

> <s_lp_Force_Field>
S-OPLS

> <r_lp_Energy>
49.0987

> <b_lp_Chiralities_Consistent>
1

> <s_lp_Variant>
CC(C)OC1=CC=C(C2=CN3C(N=C2)=C(C4=CC=NC5=CC=CC=C45)C=N3)C=C1-1

> <s_i_glide_gridfile>
glide-grid_1

> <i_i_glide_lignum>
2127

> <i_i_glide_rotatable_bonds>
4

> <r_i_docking_score>
-7.70688320152278

> <r_i_glide_ligand_efficiency>
-0.265754593155958

> <r_i_glide_ligand_efficiency_sa>
-0.816482307139901

> <r_i_glide_ligand_efficiency_ln>
-1.76468082345286

> <r_i_glide_gscore>
-7.71038320152278

> <r_i_glide_lipo>
-3.11986620385969

> <r_i_glide_hbond>
-0.294924727480563

> <r_i_glide_metal>
0

> <r_i_glide_rewards>
-2.31137704012435

> <r_i_glide_evdw>
-35.1960983276367

> <r_i_glide_ecoul>
-4.17688512802124

> <r_i_glide_erotb>
0.402122455526838

> <r_i_glide_esite>
0

> <r_i_glide_emodel>
-60.2913725507087

> <r_i_glide_energy>
-39.372983455658

> <r_i_glide_einternal>
3.99191498756409

> <i_i_glide_confnum>
25

> <i_i_glide_posenum>
279

> <r_i_glide_eff_state_penalty>
0.0035

> <r_lp_tautomer_probability>
1

> <s_m_subgroup_title>
glide-dock_SP_top1262_2_pv

> <s_m_subgroupid>
glide-dock_SP_top1262_2_pv

> <b_m_subgroup_collapsed>
0

$$$$
C[C@]([C@@](C[C@H]1O)([H])[C@]2(CC[C@@H]3O[C@@](O[C@H](CO)[C@@H](O)[C@@H]4O)(...
                    3D
 Schrodinger Suite 2021-3.
  0  0  0     0  0            999 V3000
M  V30 BEGIN CTAB
M  V30 COUNTS 165 172 0 0 0
M  V30 BEGIN ATOM
M  V30 1 O  25.3222 43.8460 85.6306 0
M  V30 2 C  24.0189 43.7377 85.0870 0
M  V30 3 C  23.0140 43.0840 86.0562 0 CFG=1
M  V30 4 O  23.3819 41.7077 86.2307 0
M  V30 5 C  22.9127 43.7982 87.4266 0 CFG=1
M  V30 6 O  22.4806 45.1432 87.3026 0
M  V30 7 C  22.0247 42.9972 88.4036 0 CFG=2
M  V30 8 O  22.0412 43.5793 89.6992 0
M  V30 9 C  22.4630 41.5111 88.4255 0 CFG=1
M  V30 10 O  21.6523 40.6958 89.2486 0
M  V30 11 C  22.4637 40.9678 86.9911 0 CFG=2
M  V30 12 O  22.8601 39.6240 87.0571 0
M  V30 13 C  22.6617 38.8599 85.8625 0 CFG=2
M  V30 14 C  21.3820 38.0019 85.9494 0 CFG=1
M  V30 15 O  20.2083 38.7838 86.1148 0
M  V30 16 C  21.2715 37.1361 84.6832 0 CFG=2
M  V30 17 O  20.0836 36.3565 84.7109 0
M  V30 18 C  22.5654 36.3039 84.4822 0 CFG=1
M  V30 19 C  22.4889 35.4870 83.1720 0
M  V30 20 O  23.6636 34.7641 82.8440 0
M  V30 21 O  23.6865 37.1999 84.4428 0
M  V30 22 C  23.8890 37.9668 85.6045 0 CFG=1
M  V30 23 O  24.9331 38.8625 85.4062 0
M  V30 24 C  26.2916 38.4186 85.3487 0 CFG=1
M  V30 25 C  26.6487 37.9606 83.9139 0
M  V30 26 C  28.1631 37.6689 83.7749 0
M  V30 27 C  27.1700 39.6134 85.8655 0
M  V30 28 C  26.9230 39.7015 87.4012 0
M  V30 29 C  26.7183 40.9246 85.1670 0
M  V30 30 C  28.6991 39.2850 85.6063 0 CFG=2
M  V30 31 C  29.6823 40.3535 86.1783 0
M  V30 32 C  31.1519 39.8952 86.1481 0
M  V30 33 C  29.0910 38.8743 84.1352 0 CFG=2
M  V30 34 C  28.8819 40.0275 83.1082 0
M  V30 35 C  30.6240 38.4020 84.1801 0 CFG=2
M  V30 36 C  31.6804 39.4453 84.7577 0 CFG=1
M  V30 37 C  31.7656 40.7286 83.8582 0
M  V30 38 C  31.1286 37.5815 82.9445 0
M  V30 39 C  32.6449 37.1837 82.9175 0 CFG=1
M  V30 40 O  32.9942 36.8134 81.6030 0
M  V30 41 C  33.5772 38.2938 83.4967 0 CFG=1
M  V30 42 C  33.0845 38.7017 84.9266 0 CFG=2
M  V30 43 C  33.0757 37.4539 85.8927 0
M  V30 44 C  34.2329 39.6014 85.4574 0
M  V30 45 C  35.4541 39.3320 84.5730 0
M  V30 46 C  35.1300 38.1319 83.6668 0 CFG=2
M  V30 47 C  36.0896 37.9377 82.4214 0 CFG=1
M  V30 48 C  35.5513 38.5831 81.1163 0
M  V30 49 C  37.6010 38.3876 82.5929 0
M  V30 50 C  38.0510 39.8579 82.8557 0
M  V30 51 C  37.4752 40.9739 81.9821 0
M  V30 52 C  38.1340 41.9484 81.3121 0
M  V30 53 C  37.3810 42.9996 80.5091 0
M  V30 54 C  39.6467 42.1281 81.2790 0
M  V30 55 O  35.9977 36.5192 82.1527 0
M  V30 56 C  36.9782 35.5554 82.4719 0 CFG=1
M  V30 57 C  36.8789 35.0786 83.9520 0 CFG=2
M  V30 58 O  37.2662 36.0437 84.9137 0
M  V30 59 C  37.7696 33.8210 84.1753 0 CFG=1
M  V30 60 O  37.6831 33.3040 85.5001 0
M  V30 61 C  37.5476 32.7511 83.0890 0 CFG=2
M  V30 62 O  38.4241 31.6484 83.2661 0
M  V30 63 C  37.7092 33.4161 81.7013 0 CFG=2
M  V30 64 O  36.7391 34.4645 81.6227 0
M  V30 65 C  37.4997 32.4475 80.5163 0
M  V30 66 O  37.6504 33.1361 79.2756 0
M  V30 67 C  36.4587 33.6031 78.7173 0 CFG=2
M  V30 68 O  35.7543 32.5162 78.1716 0
M  V30 69 C  34.4834 32.8718 77.6261 0
M  V30 70 C  34.5772 33.9695 76.5438 0 CFG=2
M  V30 71 O  34.9693 33.4238 75.2943 0
M  V30 72 C  35.4767 35.1356 77.0083 0 CFG=2
M  V30 73 O  35.6830 36.1125 75.9941 0
M  V30 74 C  36.8027 34.6122 77.6072 0 CFG=1
M  V30 75 O  37.5852 35.6992 78.0770 0
M  V30 76 H  25.9215 44.1045 84.9213 0
M  V30 77 H  24.0597 43.1582 84.1631 0
M  V30 78 H  23.6870 44.7441 84.8233 0
M  V30 79 H  22.0367 43.1147 85.5671 0
M  V30 80 H  23.9149 43.8534 87.8556 0
M  V30 81 H  21.5668 45.1578 86.9593 0
M  V30 82 H  20.9862 43.0367 88.0674 0
M  V30 83 H  22.0369 44.5345 89.5753 0
M  V30 84 H  23.4844 41.4371 88.8070 0
M  V30 85 H  22.0829 39.8334 89.2888 0
M  V30 86 H  21.4877 41.0698 86.5027 0
M  V30 87 H  22.5978 39.5339 85.0028 0
M  V30 88 H  21.4334 37.3405 86.8183 0
M  V30 89 H  20.3672 39.4433 86.8003 0
M  V30 90 H  21.1552 37.8077 83.8312 0
M  V30 91 H  19.3728 36.9581 84.9604 0
M  V30 92 H  22.6936 35.6070 85.3138 0
M  V30 93 H  21.6828 34.7609 83.2475 0
M  V30 94 H  22.2329 36.1252 82.3344 0
M  V30 95 H  23.3883 34.0820 82.2202 0
M  V30 96 H  24.1068 37.2752 86.4220 0
M  V30 97 H  26.3991 37.5738 86.0325 0
M  V30 98 H  26.3383 38.7071 83.1861 0
M  V30 99 H  26.1154 37.0328 83.6854 0
M  V30 100 H  28.3605 37.3268 82.7624 0
M  V30 101 H  28.4071 36.8187 84.4100 0
M  V30 102 H  25.8590 39.7219 87.6339 0
M  V30 103 H  27.3571 38.8551 87.9375 0
M  V30 104 H  27.3395 40.6132 87.8292 0
M  V30 105 H  25.7493 41.2393 85.5515 0
M  V30 106 H  27.3953 41.7554 85.3571 0
M  V30 107 H  26.5880 40.8263 84.0920 0
M  V30 108 H  28.8774 38.3575 86.1475 0
M  V30 109 H  29.4492 40.5367 87.2261 0
M  V30 110 H  29.5532 41.3237 85.7064 0
M  V30 111 H  31.1957 39.0601 86.8266 0
M  V30 112 H  31.7993 40.6601 86.5794 0
M  V30 113 H  28.0075 39.9003 82.4647 0
M  V30 114 H  28.7994 41.0085 83.5709 0
M  V30 115 H  29.7271 40.1056 82.4393 0
M  V30 116 H  30.6214 37.6409 84.9550 0
M  V30 117 H  30.9339 41.4133 84.0003 0
M  V30 118 H  32.6415 41.3412 84.0481 0
M  V30 119 H  31.8047 40.5004 82.7952 0
M  V30 120 H  30.9025 38.1633 82.0538 0
M  V30 121 H  30.5314 36.6732 82.8332 0
M  V30 122 H  32.7757 36.2603 83.4789 0
M  V30 123 H  32.4103 36.1084 81.3140 0
M  V30 124 H  33.4554 39.1396 82.8257 0
M  V30 125 H  32.4837 36.6149 85.5412 0
M  V30 126 H  34.0745 37.0399 86.0375 0
M  V30 127 H  32.7377 37.6915 86.8975 0
M  V30 128 H  34.4623 39.4124 86.5080 0
M  V30 129 H  34.0156 40.6669 85.4257 0
M  V30 130 H  36.3334 39.1455 85.1872 0
M  V30 131 H  35.6338 40.2202 83.9707 0
M  V30 132 H  35.2607 37.2423 84.2728 0
M  V30 133 H  34.9975 39.5030 81.2961 0
M  V30 134 H  36.3507 38.8181 80.4142 0
M  V30 135 H  34.8882 37.9231 80.5636 0
M  V30 136 H  38.0508 37.8175 83.4013 0
M  V30 137 H  38.1395 38.0649 81.7005 0
M  V30 138 H  37.8671 40.1310 83.8926 0
M  V30 139 H  39.1356 39.8593 82.7993 0
M  V30 140 H  36.3971 40.9874 81.9265 0
M  V30 141 H  37.8355 43.1519 79.5317 0
M  V30 142 H  36.3356 42.7338 80.3612 0
M  V30 143 H  37.4139 43.9499 81.0380 0
M  V30 144 H  39.9038 43.1462 81.5729 0
M  V30 145 H  40.1911 41.4630 81.9462 0
M  V30 146 H  40.0274 41.9624 80.2675 0
M  V30 147 H  37.9724 35.8967 82.1919 0
M  V30 148 H  35.8317 34.8319 84.1439 0
M  V30 149 H  37.4594 35.5703 85.7314 0
M  V30 150 H  38.8137 34.1299 84.0872 0
M  V30 151 H  36.7524 33.1550 85.7462 0
M  V30 152 H  36.5340 32.3523 83.1803 0
M  V30 153 H  38.2819 31.3051 84.1508 0
M  V30 154 H  38.7189 33.8269 81.6040 0
M  V30 155 H  36.5353 31.9389 80.5928 0
M  V30 156 H  38.2629 31.6683 80.5426 0
M  V30 157 H  35.8067 34.0405 79.4760 0
M  V30 158 H  33.8018 33.1578 78.4317 0
M  V30 159 H  34.0649 31.9597 77.1978 0
M  V30 160 H  33.5696 34.3545 76.3736 0
M  V30 161 H  35.0904 34.1508 74.6794 0
M  V30 162 H  34.9570 35.6766 77.8049 0
M  V30 163 H  34.8021 36.3549 75.6543 0
M  V30 164 H  37.3814 34.0919 76.8438 0
M  V30 165 H  37.3590 36.4551 77.5294 0
M  V30 END ATOM
M  V30 BEGIN BOND
M  V30 1 1 1 2
M  V30 2 1 1 76
M  V30 3 1 2 3
M  V30 4 1 2 77
M  V30 5 1 2 78
M  V30 6 1 3 4
M  V30 7 1 3 5
M  V30 8 1 3 79
M  V30 9 1 4 11
M  V30 10 1 5 6
M  V30 11 1 5 7
M  V30 12 1 5 80
M  V30 13 1 6 81
M  V30 14 1 7 8
M  V30 15 1 7 9
M  V30 16 1 7 82
M  V30 17 1 8 83
M  V30 18 1 9 10
M  V30 19 1 9 11
M  V30 20 1 9 84
M  V30 21 1 10 85
M  V30 22 1 11 12
M  V30 23 1 11 86
M  V30 24 1 12 13
M  V30 25 1 13 14
M  V30 26 1 13 22
M  V30 27 1 13 87
M  V30 28 1 14 15
M  V30 29 1 14 16
M  V30 30 1 14 88
M  V30 31 1 15 89
M  V30 32 1 16 17
M  V30 33 1 16 18
M  V30 34 1 16 90
M  V30 35 1 17 91
M  V30 36 1 18 19
M  V30 37 1 18 21
M  V30 38 1 18 92
M  V30 39 1 19 20
M  V30 40 1 19 93
M  V30 41 1 19 94
M  V30 42 1 20 95
M  V30 43 1 21 22
M  V30 44 1 22 23
M  V30 45 1 22 96
M  V30 46 1 23 24
M  V30 47 1 24 25
M  V30 48 1 24 27
M  V30 49 1 24 97
M  V30 50 1 25 26
M  V30 51 1 25 98
M  V30 52 1 25 99
M  V30 53 1 26 33
M  V30 54 1 26 100
M  V30 55 1 26 101
M  V30 56 1 27 28
M  V30 57 1 27 29
M  V30 58 1 27 30
M  V30 59 1 28 102
M  V30 60 1 28 103
M  V30 61 1 28 104
M  V30 62 1 29 105
M  V30 63 1 29 106
M  V30 64 1 29 107
M  V30 65 1 30 31
M  V30 66 1 30 33
M  V30 67 1 30 108
M  V30 68 1 31 32
M  V30 69 1 31 109
M  V30 70 1 31 110
M  V30 71 1 32 36
M  V30 72 1 32 111
M  V30 73 1 32 112
M  V30 74 1 33 34
M  V30 75 1 33 35
M  V30 76 1 34 113
M  V30 77 1 34 114
M  V30 78 1 34 115
M  V30 79 1 35 36
M  V30 80 1 35 38
M  V30 81 1 35 116
M  V30 82 1 36 37
M  V30 83 1 36 42
M  V30 84 1 37 117
M  V30 85 1 37 118
M  V30 86 1 37 119
M  V30 87 1 38 39
M  V30 88 1 38 120
M  V30 89 1 38 121
M  V30 90 1 39 40
M  V30 91 1 39 41
M  V30 92 1 39 122
M  V30 93 1 40 123
M  V30 94 1 41 42
M  V30 95 1 41 46
M  V30 96 1 41 124
M  V30 97 1 42 43
M  V30 98 1 42 44
M  V30 99 1 43 125
M  V30 100 1 43 126
M  V30 101 1 43 127
M  V30 102 1 44 45
M  V30 103 1 44 128
M  V30 104 1 44 129
M  V30 105 1 45 46
M  V30 106 1 45 130
M  V30 107 1 45 131
M  V30 108 1 46 47
M  V30 109 1 46 132
M  V30 110 1 47 48
M  V30 111 1 47 49
M  V30 112 1 47 55
M  V30 113 1 48 133
M  V30 114 1 48 134
M  V30 115 1 48 135
M  V30 116 1 49 50
M  V30 117 1 49 136
M  V30 118 1 49 137
M  V30 119 1 50 51
M  V30 120 1 50 138
M  V30 121 1 50 139
M  V30 122 2 51 52 CFG=2
M  V30 123 1 51 140
M  V30 124 1 52 53
M  V30 125 1 52 54
M  V30 126 1 53 141
M  V30 127 1 53 142
M  V30 128 1 53 143
M  V30 129 1 54 144
M  V30 130 1 54 145
M  V30 131 1 54 146
M  V30 132 1 55 56
M  V30 133 1 56 57
M  V30 134 1 56 64
M  V30 135 1 56 147
M  V30 136 1 57 58
M  V30 137 1 57 59
M  V30 138 1 57 148
M  V30 139 1 58 149
M  V30 140 1 59 60
M  V30 141 1 59 61
M  V30 142 1 59 150
M  V30 143 1 60 151
M  V30 144 1 61 62
M  V30 145 1 61 63
M  V30 146 1 61 152
M  V30 147 1 62 153
M  V30 148 1 63 64
M  V30 149 1 63 65
M  V30 150 1 63 154
M  V30 151 1 65 66
M  V30 152 1 65 155
M  V30 153 1 65 156
M  V30 154 1 66 67
M  V30 155 1 67 68
M  V30 156 1 67 74
M  V30 157 1 67 157
M  V30 158 1 68 69
M  V30 159 1 69 70
M  V30 160 1 69 158
M  V30 161 1 69 159
M  V30 162 1 70 71
M  V30 163 1 70 72
M  V30 164 1 70 160
M  V30 165 1 71 161
M  V30 166 1 72 73
M  V30 167 1 72 74
M  V30 168 1 72 162
M  V30 169 1 73 163
M  V30 170 1 74 75
M  V30 171 1 74 164
M  V30 172 1 75 165
M  V30 END BOND
M  V30 END CTAB
M  END
> <s_m_entry_id>
795

> <s_m_entry_name>
result.3533

> <s_m_Source_Path>
D:\OneDrive - zju.edu.cn\DOC\A-Finished\LCK_VS\Planet\LCK-8617

> <s_m_Source_File>
glide-dock_SP_top1262_2_pv.maegz

> <i_m_Source_File_Index>
795

> <PLANET_affinity>
7.397

> <i_lp_mmshare_version>
54117

> <i_f3d_flags>
0

> <s_epik_input>
W09IXVtDSDJdW0NASF0xT1tDQEhdKFtDQEhdKFtPSF0pW0NAQEhdKFtPSF0pW0NAQEhdMVtPSF0pT1tDQEBIXTJbQ0BASF0oW09IXSlbQ0BIXShbT0hdKVtDQEBIXShbQ0gyXVtPSF0pT1tDQEhdMk9bQ0BASF0oW0NIMl1bQ0gyXTMpQyhbQ0gzXSkoW0NIM10pW0NAQEhdKFtDQF0zNFtDSDNdKVtDSDJdW0NIMl1bQ0BdNShbQ0gzXSlbQ0BASF00W0NIMl1bQ0BASF0oW09IXSlbQ0BIXTZbQ0BAXTUoW0NIM10pW0NIMl1bQ0gyXVtDQEBIXTZbQ0BAXShbQ0gzXSkoW0NIMl1bQ0gyXVtDSF09QyhbQ0gzXSlbQ0gzXSlPW0NASF03W0NASF0oW09IXSlbQ0BASF0oW09IXSlbQ0BIXShbT0hdKVtDQEhdKE83KVtDSDJdT1tDQEBIXThPW0NIMl1bQ0BIXShbT0hdKVtDQEhdKFtPSF0pW0NASF04W09IXQ==

> <s_epik_cmdline>
J2VwaWtfcHl0aG9uJywgJy1waCcsICc3LjAnLCAnLXRuJywgJzgnLCAnLW1hJywgJzUwMCcsICctaW1hZScsICc8aW5maWxlLm1hZT4nLCAnLW9tYWUnLCAnPG91dGZpbGUubWFlPic=

> <r_epik_Ionization_Penalty>
  0.0000

> <r_epik_Ionization_Penalty_Charging>
  0.0000

> <r_epik_Ionization_Penalty_Neutral>
  0.0000

> <r_epik_State_Penalty>
  0.0000

> <r_epik_Charging_Adjusted_Penalty>
0

> <i_epik_Tot_Q>
0

> <i_epik_Tot_abs_Q>
0

> <s_epik_Chemistry_Notes>
This compound contains an acetal/aminal-like group ( X-CH(R)-Y where X, Y are N, S, or O) that may be acid/base labile, releasing an aldehyde.

> <s_lp_Force_Field>
S-OPLS

> <r_lp_Energy>
117.435

> <b_lp_Chiralities_Consistent>
1

> <s_lp_Variant>
C[C@]([C@@](C[C@H]1O)([H])[C@]2(CC[C@@H]3O[C@@](O[C@H](CO)[C@@H](O)[C@@H]4O)(...-1

> <s_i_glide_gridfile>
glide-grid_1

> <i_i_glide_lignum>
2100

> <i_i_glide_rotatable_bonds>
29

> <r_i_docking_score>
-7.70425655847673

> <r_i_glide_ligand_efficiency>
-0.10272342077969

> <r_i_glide_ligand_efficiency_sa>
-0.433201442262187

> <r_i_glide_ligand_efficiency_ln>
-1.44885261499026

> <r_i_glide_gscore>
-7.70425655847673

> <r_i_glide_lipo>
-1.91950262963911

> <r_i_glide_hbond>
0

> <r_i_glide_metal>
0

> <r_i_glide_rewards>
-0.165636103718554

> <r_i_glide_evdw>
-40.0849151611328

> <r_i_glide_ecoul>
-24.4771347045898

> <r_i_glide_erotb>
0.0657305908533922

> <r_i_glide_esite>
-0.00903245222734558

> <r_i_glide_emodel>
-75.2845811185561

> <r_i_glide_energy>
-64.5620498657227

> <r_i_glide_einternal>
29.4632320404053

> <i_i_glide_confnum>
395

> <i_i_glide_posenum>
94

> <r_i_glide_eff_state_penalty>
0

> <r_lp_tautomer_probability>
1

> <s_m_subgroup_title>
glide-dock_SP_top1262_2_pv

> <s_m_subgroupid>
glide-dock_SP_top1262_2_pv

> <b_m_subgroup_collapsed>
0

$$$$
OC(C)(C)C1=NC=CC(NC2=NC=CC(OC3=CN(C4CC4)N=C3C5CCOCC5)=C2)=C1
                    3D
 Schrodinger Suite 2021-3.
  0  0  0     0  0            999 V3000
M  V30 BEGIN CTAB
M  V30 COUNTS 62 66 0 0 0
M  V30 BEGIN ATOM
M  V30 1 O  29.2566 40.7052 83.4130 0
M  V30 2 C  30.0487 39.8152 84.1789 0
M  V30 3 C  31.4785 40.4033 84.1123 0
M  V30 4 C  29.5072 39.9003 85.6217 0
M  V30 5 C  29.9368 38.3719 83.6432 0
M  V30 6 N  31.0500 37.7370 83.2065 0 CHG=1
M  V30 7 C  31.0515 36.5033 82.6660 0
M  V30 8 C  29.8463 35.8131 82.5487 0
M  V30 9 C  28.6616 36.3942 83.0104 0
M  V30 10 C  28.7111 37.6881 83.5553 0
M  V30 11 N  27.4851 35.6528 82.8435 0
M  V30 12 C  26.1522 35.8166 83.2318 0
M  V30 13 N  25.2747 35.1560 82.4435 0
M  V30 14 C  23.9550 35.2505 82.7211 0
M  V30 15 C  23.4625 35.9711 83.8019 0
M  V30 16 C  24.3701 36.6315 84.6464 0
M  V30 17 C  25.7362 36.5397 84.3571 0
M  V30 18 O  24.0048 37.3996 85.7341 0
M  V30 19 C  22.6942 37.7362 85.9566 0
M  V30 20 C  21.6399 36.8949 86.2728 0
M  V30 21 N  20.5450 37.7129 86.3382 0
M  V30 22 C  19.1553 37.3292 86.5217 0
M  V30 23 C  18.7819 36.5157 87.7431 0
M  V30 24 C  18.3561 37.9592 87.6430 0
M  V30 25 N  20.8477 39.0005 86.1314 0
M  V30 26 C  22.1484 39.0353 85.9179 0
M  V30 27 C  22.8214 40.3746 85.6413 0
M  V30 28 C  24.3617 40.4231 85.8376 0
M  V30 29 C  24.9944 41.7481 85.3766 0
M  V30 30 O  24.5554 42.0556 84.0617 0
M  V30 31 C  23.1631 42.3456 84.0081 0
M  V30 32 C  22.3433 41.0855 84.3481 0
M  V30 33 H  29.5205 41.6034 83.6435 0
M  V30 34 H  32.1829 39.8186 84.7055 0
M  V30 35 H  31.5156 41.4233 84.5011 0
M  V30 36 H  31.8529 40.4494 83.0882 0
M  V30 37 H  30.0460 39.2244 86.2883 0
M  V30 38 H  29.6102 40.9051 86.0339 0
M  V30 39 H  28.4491 39.6414 85.6788 0
M  V30 40 H  32.0075 36.1203 82.3336 0
M  V30 41 H  29.8390 34.8301 82.0978 0
M  V30 42 H  27.8096 38.1967 83.8552 0
M  V30 43 H  27.6051 34.8514 82.2407 0
M  V30 44 H  23.2830 34.7566 82.0408 0
M  V30 45 H  22.3969 36.0222 83.9539 0
M  V30 46 H  26.4422 37.0258 85.0098 0
M  V30 47 H  21.5633 35.8264 86.4131 0
M  V30 48 H  18.6359 37.1547 85.5789 0
M  V30 49 H  18.0283 35.7353 87.6415 0
M  V30 50 H  19.5685 36.2361 88.4438 0
M  V30 51 H  18.8359 38.7099 88.2704 0
M  V30 52 H  17.3071 38.1984 87.4595 0
M  V30 53 H  22.5075 41.0974 86.3990 0
M  V30 54 H  24.6320 40.2530 86.8808 0
M  V30 55 H  24.8296 39.6675 85.2071 0
M  V30 56 H  24.7492 42.5608 86.0644 0
M  V30 57 H  26.0822 41.6666 85.3728 0
M  V30 58 H  22.9128 43.1703 84.6797 0
M  V30 59 H  22.9200 42.6890 83.0026 0
M  V30 60 H  22.4824 40.4084 83.5034 0
M  V30 61 H  21.2920 41.3708 84.4185 0
M  V30 62 H  31.9288 38.2317 83.2665 0
M  V30 END ATOM
M  V30 BEGIN BOND
M  V30 1 1 1 2
M  V30 2 1 1 33
M  V30 3 1 2 3
M  V30 4 1 2 4
M  V30 5 1 2 5
M  V30 6 1 3 34
M  V30 7 1 3 35
M  V30 8 1 3 36
M  V30 9 1 4 37
M  V30 10 1 4 38
M  V30 11 1 4 39
M  V30 12 2 5 6
M  V30 13 1 5 10
M  V30 14 1 6 7
M  V30 15 1 6 62
M  V30 16 2 7 8
M  V30 17 1 7 40
M  V30 18 1 8 9
M  V30 19 1 8 41
M  V30 20 2 9 10
M  V30 21 1 9 11
M  V30 22 1 10 42
M  V30 23 1 11 12
M  V30 24 1 11 43
M  V30 25 2 12 13
M  V30 26 1 12 17
M  V30 27 1 13 14
M  V30 28 2 14 15
M  V30 29 1 14 44
M  V30 30 1 15 16
M  V30 31 1 15 45
M  V30 32 2 16 17
M  V30 33 1 16 18
M  V30 34 1 17 46
M  V30 35 1 18 19
M  V30 36 2 19 20
M  V30 37 1 19 26
M  V30 38 1 20 21
M  V30 39 1 20 47
M  V30 40 1 21 22
M  V30 41 1 21 25
M  V30 42 1 22 23
M  V30 43 1 22 24
M  V30 44 1 22 48
M  V30 45 1 23 24
M  V30 46 1 23 49
M  V30 47 1 23 50
M  V30 48 1 24 51
M  V30 49 1 24 52
M  V30 50 2 25 26
M  V30 51 1 26 27
M  V30 52 1 27 28
M  V30 53 1 27 32
M  V30 54 1 27 53
M  V30 55 1 28 29
M  V30 56 1 28 54
M  V30 57 1 28 55
M  V30 58 1 29 30
M  V30 59 1 29 56
M  V30 60 1 29 57
M  V30 61 1 30 31
M  V30 62 1 31 32
M  V30 63 1 31 58
M  V30 64 1 31 59
M  V30 65 1 32 60
M  V30 66 1 32 61
M  V30 END BOND
M  V30 END CTAB
M  END
> <s_m_entry_id>
797

> <s_m_entry_name>
result.3541

> <s_m_Source_Path>
D:\OneDrive - zju.edu.cn\DOC\A-Finished\LCK_VS\Planet\LCK-8617

> <s_m_Source_File>
glide-dock_SP_top1262_2_pv.maegz

> <i_m_Source_File_Index>
797

> <PLANET_affinity>
8.498

> <i_lp_mmshare_version>
54117

> <i_f3d_flags>
0

> <s_epik_input>
W09IXUMoW0NIM10pKFtDSDNdKWMxbltjSF1bY0hdYyhbY0hdMSlbTkhdYzJuW2NIXVtjSF1jKFtjSF0yKU9jM1tjSF1uKFtDSF00W0NIMl1bQ0gyXTQpbmMzW0NIXTVbQ0gyXVtDSDJdT1tDSDJdW0NIMl01

> <s_epik_cmdline>
J2VwaWtfcHl0aG9uJywgJy1waCcsICc3LjAnLCAnLXRuJywgJzgnLCAnLW1hJywgJzUwMCcsICctaW1hZScsICc8aW5maWxlLm1hZT4nLCAnLW9tYWUnLCAnPG91dGZpbGUubWFlPic=

> <r_epik_Ionization_Penalty>
  0.4837

> <r_epik_Ionization_Penalty_Charging>
  0.3266

> <r_epik_Ionization_Penalty_Neutral>
  0.1571

> <r_epik_State_Penalty>
  0.4675

> <r_epik_Charging_Adjusted_Penalty>
0.794096

> <i_epik_Tot_Q>
1

> <i_epik_Tot_abs_Q>
1

> <s_lp_Force_Field>
S-OPLS

> <r_lp_Energy>
36.5905

> <b_lp_Chiralities_Consistent>
1

> <s_lp_Variant>
OC(C)(C)C1=NC=CC(NC2=NC=CC(OC3=CN(C4CC4)N=C3C5CCOCC5)=C2)=C1-1

> <s_i_glide_gridfile>
glide-grid_1

> <i_i_glide_lignum>
800

> <i_i_glide_rotatable_bonds>
8

> <r_i_docking_score>
-7.70278962592042

> <r_i_glide_ligand_efficiency>
-0.240712175810013

> <r_i_glide_ligand_efficiency_sa>
-0.764213521321884

> <r_i_glide_ligand_efficiency_ln>
-1.7248645673586

> <r_i_glide_gscore>
-8.17028962592042

> <r_i_glide_lipo>
-3.19185639781366

> <r_i_glide_hbond>
-0.42637150567846

> <r_i_glide_metal>
0

> <r_i_glide_rewards>
-1.38060451062068

> <r_i_glide_evdw>
-49.8386611938477

> <r_i_glide_ecoul>
-9.35448360443115

> <r_i_glide_erotb>
0.732254370980097

> <r_i_glide_esite>
-0.00860598243065488

> <r_i_glide_emodel>
-84.6164551699975

> <r_i_glide_energy>
-59.1931447982788

> <r_i_glide_einternal>
10.3118381500244

> <i_i_glide_confnum>
89

> <i_i_glide_posenum>
68

> <r_i_glide_eff_state_penalty>
0.4675

> <r_lp_tautomer_probability>
1

> <s_m_subgroup_title>
glide-dock_SP_top1262_2_pv

> <s_m_subgroupid>
glide-dock_SP_top1262_2_pv

> <b_m_subgroup_collapsed>
0

$$$$
ClC1=C(OC)C=C(OC)C(Cl)=C1C2=CC3=CN=C(NC4=C(C)C=CC=C4NC(C(C#N)C)=O)N=C3C=C2
                    3D
 Schrodinger Suite 2021-3.
  0  0  0     0  0            999 V3000
M  V30 BEGIN CTAB
M  V30 COUNTS 60 63 0 0 0
M  V30 BEGIN ATOM
M  V30 1 Cl 21.6230 39.8674 84.0435 0
M  V30 2 C  20.9138 38.6793 85.0890 0
M  V30 3 C  19.5211 38.5170 85.0971 0
M  V30 4 O  18.7749 39.1567 84.1237 0
M  V30 5 C  17.4208 38.7564 83.9148 0
M  V30 6 C  18.9484 37.7043 86.0805 0
M  V30 7 C  19.7422 36.9736 86.9733 0
M  V30 8 O  19.2338 36.2402 88.0285 0
M  V30 9 C  17.8717 36.4245 88.3626 0
M  V30 10 C  21.1274 36.9976 86.8142 0
M  V30 11 Cl 22.0792 35.8676 87.7139 0
M  V30 12 C  21.7304 37.8963 85.9236 0
M  V30 13 C  23.2111 38.0117 85.8687 0
M  V30 14 C  23.9152 37.3961 84.8347 0
M  V30 15 C  23.9018 38.7393 86.8423 0
M  V30 16 C  25.2896 38.8531 86.8042 0
M  V30 17 C  26.0195 38.2529 85.7548 0
M  V30 18 C  25.3185 37.5303 84.7473 0
M  V30 19 N  27.3725 38.3866 85.7173 0
M  V30 20 C  28.0285 37.8370 84.6660 0
M  V30 21 N  27.4584 37.1574 83.6393 0
M  V30 22 C  26.1154 37.0014 83.7055 0
M  V30 23 N  29.4060 38.0540 84.6932 0
M  V30 24 C  30.3192 38.1610 83.6266 0
M  V30 25 C  30.7049 37.0513 82.8430 0
M  V30 26 C  30.1362 35.6554 83.0585 0
M  V30 27 C  31.6842 37.2052 81.8559 0
M  V30 28 C  32.2917 38.4419 81.6454 0
M  V30 29 C  31.9178 39.5439 82.4093 0
M  V30 30 C  30.9267 39.4154 83.3834 0
M  V30 31 N  30.5715 40.5729 84.0993 0
M  V30 32 C  29.3560 41.1567 84.0438 0
M  V30 33 O  28.4800 40.8175 83.2435 0
M  V30 34 C  29.0965 42.2814 85.0622 0 CFG=2
M  V30 35 C  28.7065 41.7633 86.3838 0
M  V30 36 N  28.4004 41.3571 87.4231 0
M  V30 37 C  28.0815 43.3353 84.5704 0
M  V30 38 H  17.0575 39.1567 82.9702 0
M  V30 39 H  17.3268 37.6727 83.8423 0
M  V30 40 H  16.7731 39.1250 84.7100 0
M  V30 41 H  17.8748 37.6399 86.1470 0
M  V30 42 H  17.6831 35.9567 89.3223 0
M  V30 43 H  17.6018 37.4776 88.4628 0
M  V30 44 H  17.2420 35.9576 87.6085 0
M  V30 45 H  23.3881 36.8442 84.0675 0
M  V30 46 H  23.3569 39.2160 87.6456 0
M  V30 47 H  25.8169 39.4146 87.5624 0
M  V30 48 H  25.6545 36.4499 82.8983 0
M  V30 49 H  29.6157 38.6998 85.4368 0
M  V30 50 H  29.6831 35.5565 84.0425 0
M  V30 51 H  29.3968 35.4169 82.2929 0
M  V30 52 H  30.9264 34.9059 83.0015 0
M  V30 53 H  31.9813 36.3608 81.2497 0
M  V30 54 H  33.0440 38.5477 80.8772 0
M  V30 55 H  32.3842 40.5027 82.2247 0
M  V30 56 H  31.3077 41.0530 84.5947 0
M  V30 57 H  30.0421 42.7973 85.2425 0
M  V30 58 H  27.9535 44.1303 85.3069 0
M  V30 59 H  28.4112 43.8095 83.6458 0
M  V30 60 H  27.0973 42.8991 84.3935 0
M  V30 END ATOM
M  V30 BEGIN BOND
M  V30 1 1 1 2
M  V30 2 2 2 3
M  V30 3 1 2 12
M  V30 4 1 3 4
M  V30 5 1 3 6
M  V30 6 1 4 5
M  V30 7 1 5 38
M  V30 8 1 5 39
M  V30 9 1 5 40
M  V30 10 2 6 7
M  V30 11 1 6 41
M  V30 12 1 7 8
M  V30 13 1 7 10
M  V30 14 1 8 9
M  V30 15 1 9 42
M  V30 16 1 9 43
M  V30 17 1 9 44
M  V30 18 1 10 11
M  V30 19 2 10 12
M  V30 20 1 12 13
M  V30 21 2 13 14
M  V30 22 1 13 15
M  V30 23 1 14 18
M  V30 24 1 14 45
M  V30 25 2 15 16
M  V30 26 1 15 46
M  V30 27 1 16 17
M  V30 28 1 16 47
M  V30 29 2 17 18
M  V30 30 1 17 19
M  V30 31 1 18 22
M  V30 32 2 19 20
M  V30 33 1 20 21
M  V30 34 1 20 23
M  V30 35 2 21 22
M  V30 36 1 22 48
M  V30 37 1 23 24
M  V30 38 1 23 49
M  V30 39 2 24 25
M  V30 40 1 24 30
M  V30 41 1 25 26
M  V30 42 1 25 27
M  V30 43 1 26 50
M  V30 44 1 26 51
M  V30 45 1 26 52
M  V30 46 2 27 28
M  V30 47 1 27 53
M  V30 48 1 28 29
M  V30 49 1 28 54
M  V30 50 2 29 30
M  V30 51 1 29 55
M  V30 52 1 30 31
M  V30 53 1 31 32
M  V30 54 1 31 56
M  V30 55 2 32 33
M  V30 56 1 32 34
M  V30 57 1 34 35
M  V30 58 1 34 37
M  V30 59 1 34 57
M  V30 60 3 35 36
M  V30 61 1 37 58
M  V30 62 1 37 59
M  V30 63 1 37 60
M  V30 END BOND
M  V30 END CTAB
M  END
> <s_m_entry_id>
804

> <s_m_entry_name>
result.1019

> <s_m_Source_Path>
D:\OneDrive - zju.edu.cn\DOC\A-Finished\LCK_VS\Planet\LCK-8617

> <s_m_Source_File>
glide-dock_SP_top1262_2_pv.maegz

> <i_m_Source_File_Index>
804

> <PLANET_affinity>
8.237

> <i_lp_mmshare_version>
54117

> <i_f3d_flags>
0

> <s_epik_input>
Q2xjMWMoT1tDSDNdKVtjSF1jKE9bQ0gzXSljKENsKWMxLWMoW2NIXVtjSF0yKVtjSF1jKGMyMylbY0hdbmMobjMpW05IXWM0YyhbQ0gzXSlbY0hdW2NIXVtjSF1jNFtOSF1DKD1PKVtDQEhdKEMjTilbQ0gzXQ==

> <s_epik_cmdline>
J2VwaWtfcHl0aG9uJywgJy1waCcsICc3LjAnLCAnLXRuJywgJzgnLCAnLW1hJywgJzUwMCcsICctaW1hZScsICc8aW5maWxlLm1hZT4nLCAnLW9tYWUnLCAnPG91dGZpbGUubWFlPic=

> <r_epik_Ionization_Penalty>
  0.0001

> <r_epik_Ionization_Penalty_Charging>
  0.0000

> <r_epik_Ionization_Penalty_Neutral>
  0.0001

> <r_epik_State_Penalty>
  0.0000

> <r_epik_Charging_Adjusted_Penalty>
0

> <i_epik_Tot_Q>
0

> <i_epik_Tot_abs_Q>
0

> <s_lp_Force_Field>
S-OPLS

> <r_lp_Energy>
65.2459

> <b_lp_Chiralities_Consistent>
1

> <s_lp_Variant>
ClC1=C(OC)C=C(OC)C(Cl)=C1C2=CC3=CN=C(NC4=C(C)C=CC=C4NC(C(C#N)C)=O)N=C3C=C2-1

> <s_i_glide_gridfile>
glide-grid_1

> <i_i_glide_lignum>
1039

> <i_i_glide_rotatable_bonds>
8

> <r_i_docking_score>
-7.69686716748964

> <r_i_glide_ligand_efficiency>
-0.208023436959179

> <r_i_glide_ligand_efficiency_sa>
-0.693180241455533

> <r_i_glide_ligand_efficiency_ln>
-1.66927004846107

> <r_i_glide_gscore>
-7.69686716748964

> <r_i_glide_lipo>
-3.63386070591531

> <r_i_glide_hbond>
-0.608

> <r_i_glide_metal>
0

> <r_i_glide_rewards>
-0.22441541789163

> <r_i_glide_evdw>
-47.0800704956055

> <r_i_glide_ecoul>
-7.59271001815796

> <r_i_glide_erotb>
0.358842841511067

> <r_i_glide_esite>
-0.0965238576897958

> <r_i_glide_emodel>
-71.8687228571177

> <r_i_glide_energy>
-54.6727805137634

> <r_i_glide_einternal>
11.0702056884766

> <i_i_glide_confnum>
157

> <i_i_glide_posenum>
101

> <r_i_glide_eff_state_penalty>
0

> <r_lp_tautomer_probability>
1

> <s_m_subgroup_title>
glide-dock_SP_top1262_2_pv

> <s_m_subgroupid>
glide-dock_SP_top1262_2_pv

> <b_m_subgroup_collapsed>
0

$$$$
ClC1=CC=C(C2=CC(CN(C(CC(C)(C)C3=C(C)C(C(C)=C(C)C3=O)=O)=O)CCCCSC[C@@H]4[C@@H]...
                    3D
 Schrodinger Suite 2021-3.
  0  0  0     0  0            999 V3000
M  V30 BEGIN CTAB
M  V30 COUNTS 102 107 0 0 0
M  V30 BEGIN ATOM
M  V30 1 O  32.0828 37.9564 81.0947 0
M  V30 2 C  32.6555 38.8837 81.6660 0
M  V30 3 C  33.6408 39.7216 80.9386 0
M  V30 4 C  34.0139 39.1769 79.5568 0
M  V30 5 C  34.2030 40.8334 81.4773 0
M  V30 6 C  35.1721 41.7503 80.7181 0
M  V30 7 C  33.8785 41.3235 82.8339 0
M  V30 8 O  34.4320 42.3157 83.3187 0
M  V30 9 C  32.8860 40.4824 83.5736 0
M  V30 10 C  32.4188 41.1812 84.8591 0
M  V30 11 C  32.3956 39.2845 83.0975 0
M  V30 12 C  31.5776 38.2064 83.9322 0
M  V30 13 C  32.2809 36.8099 83.8059 0
M  V30 14 C  31.5695 38.4204 85.4813 0
M  V30 15 C  30.0817 38.0482 83.4777 0
M  V30 16 C  29.1743 39.3021 83.6437 0
M  V30 17 O  29.4279 40.2865 82.9468 0
M  V30 18 N  28.1401 39.3059 84.5355 0
M  V30 19 C  27.6209 38.1261 85.2415 0
M  V30 20 C  26.4763 37.4044 84.5339 0
M  V30 21 C  26.7355 36.5327 83.4728 0
M  V30 22 C  25.6992 35.7890 82.9056 0
M  V30 23 C  24.3993 35.9058 83.4024 0
M  V30 24 C  25.1659 37.5346 85.0044 0
M  V30 25 C  24.1035 36.7992 84.4476 0
M  V30 26 C  22.7000 36.9751 84.9563 0
M  V30 27 C  21.5912 36.7580 84.1238 0
M  V30 28 C  20.2910 36.9537 84.5861 0
M  V30 29 C  22.4618 37.3807 86.2797 0
M  V30 30 C  21.1664 37.5665 86.7537 0
M  V30 31 C  20.0819 37.3564 85.9059 0
M  V30 32 Cl 18.4754 37.5891 86.4931 0
M  V30 33 C  27.3920 40.5450 84.8158 0
M  V30 34 C  28.2495 41.6003 85.5453 0
M  V30 35 C  27.4440 42.7156 86.2421 0
M  V30 36 C  28.2939 43.9227 86.6900 0
M  V30 37 S  29.9105 43.5996 87.4708 0
M  V30 38 C  29.4657 42.7740 89.0263 0
M  V30 39 C  29.0123 43.7123 90.1658 0 CFG=2
M  V30 40 C  28.8838 43.0290 91.5331 0 CFG=1
M  V30 41 O  29.8966 43.4520 92.4425 0
M  V30 42 C  27.4427 43.2490 92.0116 0 CFG=1
M  V30 43 O  27.2767 43.9208 93.2480 0
M  V30 44 C  26.8221 44.1184 90.9124 0 CFG=1
M  V30 45 O  27.7229 44.2105 89.8554 0
M  V30 46 N  25.4650 43.6803 90.4053 0
M  V30 47 C  24.3273 44.3999 90.3674 0
M  V30 48 N  23.3035 43.7510 89.8760 0
M  V30 49 C  23.8079 42.5548 89.5255 0
M  V30 50 C  25.1537 42.4690 89.8372 0
M  V30 51 C  23.2201 41.4300 88.9140 0
M  V30 52 N  21.8782 41.3716 88.5516 0
M  V30 53 N  24.0016 40.3510 88.6383 0
M  V30 54 C  25.2931 40.4081 88.9949 0
M  V30 55 N  25.9596 41.3996 89.6015 0
M  V30 56 H  33.3088 39.5480 78.8087 0
M  V30 57 H  35.0201 39.4661 79.2497 0
M  V30 58 H  34.0063 38.0846 79.5099 0
M  V30 59 H  36.1832 41.6288 81.1032 0
M  V30 60 H  35.1968 41.5669 79.6474 0
M  V30 61 H  34.8874 42.7975 80.8210 0
M  V30 62 H  32.9453 40.8098 85.7373 0
M  V30 63 H  32.5461 42.2647 84.8456 0
M  V30 64 H  31.3446 41.0718 84.9799 0
M  V30 65 H  31.8385 36.0489 84.4421 0
M  V30 66 H  32.2193 36.3559 82.8164 0
M  V30 67 H  33.3417 36.8740 84.0715 0
M  V30 68 H  31.1614 37.5576 86.0080 0
M  V30 69 H  32.5741 38.5746 85.8790 0
M  V30 70 H  30.9217 39.2275 85.8121 0
M  V30 71 H  29.6754 37.1786 83.9883 0
M  V30 72 H  30.0169 37.7360 82.4438 0
M  V30 73 H  27.2785 38.4386 86.2314 0
M  V30 74 H  28.3920 37.3946 85.4555 0
M  V30 75 H  27.7358 36.4117 83.0858 0
M  V30 76 H  25.9188 35.1258 82.0834 0
M  V30 77 H  23.6251 35.3045 82.9472 0
M  V30 78 H  24.9806 38.2252 85.8164 0
M  V30 79 H  21.7194 36.4555 83.0958 0
M  V30 80 H  19.4486 36.7939 83.9314 0
M  V30 81 H  23.2767 37.5553 86.9639 0
M  V30 82 H  21.0057 37.8703 87.7781 0
M  V30 83 H  26.9656 40.9614 83.9015 0
M  V30 84 H  26.5302 40.3069 85.4465 0
M  V30 85 H  28.8735 41.1105 86.2933 0
M  V30 86 H  28.9352 42.0582 84.8278 0
M  V30 87 H  26.6700 43.0756 85.5659 0
M  V30 88 H  26.9159 42.3037 87.1028 0
M  V30 89 H  28.5239 44.5208 85.8053 0
M  V30 90 H  27.7066 44.5750 87.3324 0
M  V30 91 H  28.7016 42.0262 88.8206 0
M  V30 92 H  30.3515 42.2230 89.3399 0
M  V30 93 H  29.6854 44.5661 90.2195 0
M  V30 94 H  29.0120 41.9581 91.3847 0
M  V30 95 H  29.6628 43.1643 93.3336 0
M  V30 96 H  26.9238 42.2876 92.0433 0
M  V30 97 H  27.6481 43.3788 93.9546 0
M  V30 98 H  26.7036 45.1450 91.2637 0
M  V30 99 H  24.3019 45.4181 90.7398 0
M  V30 100 H  21.3807 42.2503 88.5107 0
M  V30 101 H  21.5980 40.5997 87.9704 0
M  V30 102 H  25.8799 39.5267 88.7701 0
M  V30 END ATOM
M  V30 BEGIN BOND
M  V30 1 2 1 2
M  V30 2 1 2 3
M  V30 3 1 2 11
M  V30 4 1 3 4
M  V30 5 2 3 5
M  V30 6 1 4 56
M  V30 7 1 4 57
M  V30 8 1 4 58
M  V30 9 1 5 6
M  V30 10 1 5 7
M  V30 11 1 6 59
M  V30 12 1 6 60
M  V30 13 1 6 61
M  V30 14 2 7 8
M  V30 15 1 7 9
M  V30 16 1 9 10
M  V30 17 2 9 11
M  V30 18 1 10 62
M  V30 19 1 10 63
M  V30 20 1 10 64
M  V30 21 1 11 12
M  V30 22 1 12 13
M  V30 23 1 12 14
M  V30 24 1 12 15
M  V30 25 1 13 65
M  V30 26 1 13 66
M  V30 27 1 13 67
M  V30 28 1 14 68
M  V30 29 1 14 69
M  V30 30 1 14 70
M  V30 31 1 15 16
M  V30 32 1 15 71
M  V30 33 1 15 72
M  V30 34 2 16 17
M  V30 35 1 16 18
M  V30 36 1 18 19
M  V30 37 1 18 33
M  V30 38 1 19 20
M  V30 39 1 19 73
M  V30 40 1 19 74
M  V30 41 2 20 21
M  V30 42 1 20 24
M  V30 43 1 21 22
M  V30 44 1 21 75
M  V30 45 2 22 23
M  V30 46 1 22 76
M  V30 47 1 23 25
M  V30 48 1 23 77
M  V30 49 2 24 25
M  V30 50 1 24 78
M  V30 51 1 25 26
M  V30 52 2 26 27
M  V30 53 1 26 29
M  V30 54 1 27 28
M  V30 55 1 27 79
M  V30 56 2 28 31
M  V30 57 1 28 80
M  V30 58 2 29 30
M  V30 59 1 29 81
M  V30 60 1 30 31
M  V30 61 1 30 82
M  V30 62 1 31 32
M  V30 63 1 33 34
M  V30 64 1 33 83
M  V30 65 1 33 84
M  V30 66 1 34 35
M  V30 67 1 34 85
M  V30 68 1 34 86
M  V30 69 1 35 36
M  V30 70 1 35 87
M  V30 71 1 35 88
M  V30 72 1 36 37
M  V30 73 1 36 89
M  V30 74 1 36 90
M  V30 75 1 37 38
M  V30 76 1 38 39
M  V30 77 1 38 91
M  V30 78 1 38 92
M  V30 79 1 39 40
M  V30 80 1 39 45
M  V30 81 1 39 93
M  V30 82 1 40 41
M  V30 83 1 40 42
M  V30 84 1 40 94
M  V30 85 1 41 95
M  V30 86 1 42 43
M  V30 87 1 42 44
M  V30 88 1 42 96
M  V30 89 1 43 97
M  V30 90 1 44 45
M  V30 91 1 44 46
M  V30 92 1 44 98
M  V30 93 1 46 47
M  V30 94 1 46 50
M  V30 95 2 47 48
M  V30 96 1 47 99
M  V30 97 1 48 49
M  V30 98 2 49 50
M  V30 99 1 49 51
M  V30 100 1 50 55
M  V30 101 1 51 52
M  V30 102 2 51 53
M  V30 103 1 52 100
M  V30 104 1 52 101
M  V30 105 1 53 54
M  V30 106 2 54 55
M  V30 107 1 54 102
M  V30 END BOND
M  V30 END CTAB
M  END
> <s_m_entry_id>
806

> <s_m_entry_name>
result.1291

> <s_m_Source_Path>
D:\OneDrive - zju.edu.cn\DOC\A-Finished\LCK_VS\Planet\LCK-8617

> <s_m_Source_File>
glide-dock_SP_top1262_2_pv.maegz

> <i_m_Source_File_Index>
806

> <PLANET_affinity>
8.233

> <i_lp_mmshare_version>
54117

> <i_f3d_flags>
0

> <s_epik_input>
W2NIXTFbY0hdYyhDbClbY0hdW2NIXWMxLWMoW2NIXTIpW2NIXVtjSF1bY0hdYzJbQ0gyXU4oQyg9TylbQ0gyXUMoW0NIM10pKFtDSDNdKUMzPUMoW0NIM10pQyg9TylDKFtDSDNdKT1DKEMzPU8pW0NIM10pW0NIMl1bQ0gyXVtDSDJdW0NIMl1TW0NIMl1bQ0BASF00W0NAQEhdKFtPSF0pW0NAQEhdKFtPSF0pW0NAQEhdKE80KW4oW2NIXW41KWMoYzU2KW5bY0hdbmM2W05IMl0=

> <s_epik_cmdline>
J2VwaWtfcHl0aG9uJywgJy1waCcsICc3LjAnLCAnLXRuJywgJzgnLCAnLW1hJywgJzUwMCcsICctaW1hZScsICc8aW5maWxlLm1hZT4nLCAnLW9tYWUnLCAnPG91dGZpbGUubWFlPic=

> <r_epik_Ionization_Penalty>
  0.0004

> <r_epik_Ionization_Penalty_Charging>
  0.0000

> <r_epik_Ionization_Penalty_Neutral>
  0.0004

> <r_epik_State_Penalty>
  0.0000

> <r_epik_Charging_Adjusted_Penalty>
0

> <i_epik_Tot_Q>
0

> <i_epik_Tot_abs_Q>
0

> <s_epik_Chemistry_Notes>
This compound contains an acetal/aminal-like group ( X-CH(R)-Y where X, Y are N, S, or O) that may be acid/base labile, releasing an aldehyde.

> <s_lp_Force_Field>
S-OPLS

> <r_lp_Energy>
68.9319

> <b_lp_Chiralities_Consistent>
1

> <s_lp_Variant>
ClC1=CC=C(C2=CC(CN(C(CC(C)(C)C3=C(C)C(C(C)=C(C)C3=O)=O)=O)CCCCSC[C@@H]4[C@@H]...-1

> <s_i_glide_gridfile>
glide-grid_1

> <i_i_glide_lignum>
1042

> <i_i_glide_rotatable_bonds>
17

> <r_i_docking_score>
-7.69515910746548

> <r_i_glide_ligand_efficiency>
-0.1399119837721

> <r_i_glide_ligand_efficiency_sa>
-0.532078622265375

> <r_i_glide_ligand_efficiency_ln>
-1.53677792605451

> <r_i_glide_gscore>
-7.69515910746548

> <r_i_glide_lipo>
-3.64349324079692

> <r_i_glide_hbond>
-0.277293493273638

> <r_i_glide_metal>
0

> <r_i_glide_rewards>
-0.323819975073665

> <r_i_glide_evdw>
-52.8501129150391

> <r_i_glide_ecoul>
-7.19131374359131

> <r_i_glide_erotb>
0.324453041133803

> <r_i_glide_esite>
-0.0538027321644032

> <r_i_glide_emodel>
-81.8698998045247

> <r_i_glide_energy>
-60.0414266586304

> <r_i_glide_einternal>
15.150336265564

> <i_i_glide_confnum>
899

> <i_i_glide_posenum>
360

> <r_i_glide_eff_state_penalty>
0

> <r_lp_tautomer_probability>
1

> <s_m_subgroup_title>
glide-dock_SP_top1262_2_pv

> <s_m_subgroupid>
glide-dock_SP_top1262_2_pv

> <b_m_subgroup_collapsed>
0

$$$$
O[C@@]1(C)C[C@@H](C2=NC(C3=CC=C4C=CC(C5=CC=CC=C5)=NC4=C3)=C6C(N)=NC=CN62)C1
                    3D
 Schrodinger Suite 2021-3.
  0  0  0     0  0            999 V3000
M  V30 BEGIN CTAB
M  V30 COUNTS 55 60 0 0 0
M  V30 BEGIN ATOM
M  V30 1 N  27.1569 35.9990 82.4435 0
M  V30 2 C  25.8813 36.0359 82.9765 0
M  V30 3 N  25.0064 35.1567 82.4438 0
M  V30 4 C  23.7377 35.1514 82.9007 0
M  V30 5 C  23.3093 35.9873 83.9210 0
M  V30 6 N  24.2010 36.8957 84.4433 0
M  V30 7 C  25.5221 36.9702 83.9676 0
M  V30 8 C  24.0863 37.9047 85.3869 0
M  V30 9 C  22.7991 38.2976 86.1053 0 CFG=1
M  V30 10 C  21.5955 38.6469 85.2097 0
M  V30 11 C  21.9388 37.1954 86.7537 0
M  V30 12 C  20.6869 37.9177 86.2157 0 CFG=2
M  V30 13 O  19.6826 37.0926 85.6707 0
M  V30 14 C  20.0395 38.8685 87.2434 0
M  V30 15 N  25.1917 38.6249 85.4496 0
M  V30 16 C  26.0872 38.0841 84.6498 0
M  V30 17 C  27.4471 38.6651 84.4614 0
M  V30 18 C  27.6258 40.0278 84.2053 0
M  V30 19 C  28.8872 40.5400 83.8969 0
M  V30 20 C  28.5473 37.8093 84.4440 0
M  V30 21 C  29.8284 38.2908 84.1081 0
M  V30 22 C  30.0062 39.6745 83.8247 0
M  V30 23 N  30.8526 37.4024 84.0438 0
M  V30 24 C  32.0965 37.8372 83.7082 0
M  V30 25 C  32.3480 39.1836 83.4158 0
M  V30 26 C  31.3061 40.1113 83.4732 0
M  V30 27 C  33.1613 36.7823 83.6637 0
M  V30 28 C  34.5024 37.1064 83.9141 0
M  V30 29 C  35.4905 36.1236 83.9020 0
M  V30 30 C  35.1431 34.8014 83.6433 0
M  V30 31 C  33.8217 34.4554 83.3849 0
M  V30 32 C  32.8402 35.4410 83.3940 0
M  V30 33 H  27.8156 36.7086 82.7233 0
M  V30 34 H  27.2876 35.4758 81.5826 0
M  V30 35 H  23.0649 34.4414 82.4445 0
M  V30 36 H  22.2924 35.9899 84.2728 0
M  V30 37 H  23.0044 39.0987 86.8206 0
M  V30 38 H  21.3627 39.7030 85.0624 0
M  V30 39 H  21.5768 38.1576 84.2351 0
M  V30 40 H  22.0292 36.1921 86.3400 0
M  V30 41 H  21.9662 37.1081 87.8406 0
M  V30 42 H  19.0258 37.6536 85.2535 0
M  V30 43 H  20.7712 39.5211 87.7189 0
M  V30 44 H  19.2903 39.5091 86.7748 0
M  V30 45 H  19.5390 38.3076 88.0346 0
M  V30 46 H  26.7739 40.6923 84.2177 0
M  V30 47 H  29.0207 41.5934 83.6937 0
M  V30 48 H  28.4276 36.7578 84.6643 0
M  V30 49 H  33.3359 39.5184 83.1369 0
M  V30 50 H  31.4806 41.1557 83.2524 0
M  V30 51 H  34.7922 38.1211 84.1382 0
M  V30 52 H  36.5176 36.3815 84.1119 0
M  V30 53 H  35.9022 34.0337 83.6540 0
M  V30 54 H  33.5548 33.4271 83.1875 0
M  V30 55 H  31.8200 35.1477 83.1955 0
M  V30 END ATOM
M  V30 BEGIN BOND
M  V30 1 1 1 2
M  V30 2 1 1 33
M  V30 3 1 1 34
M  V30 4 2 2 3
M  V30 5 1 2 7
M  V30 6 1 3 4
M  V30 7 2 4 5
M  V30 8 1 4 35
M  V30 9 1 5 6
M  V30 10 1 5 36
M  V30 11 1 6 7
M  V30 12 1 6 8
M  V30 13 2 7 16
M  V30 14 1 8 9
M  V30 15 2 8 15
M  V30 16 1 9 10
M  V30 17 1 9 11
M  V30 18 1 9 37
M  V30 19 1 10 12
M  V30 20 1 10 38
M  V30 21 1 10 39
M  V30 22 1 11 12
M  V30 23 1 11 40
M  V30 24 1 11 41
M  V30 25 1 12 13
M  V30 26 1 12 14
M  V30 27 1 13 42
M  V30 28 1 14 43
M  V30 29 1 14 44
M  V30 30 1 14 45
M  V30 31 1 15 16
M  V30 32 1 16 17
M  V30 33 2 17 18
M  V30 34 1 17 20
M  V30 35 1 18 19
M  V30 36 1 18 46
M  V30 37 2 19 22
M  V30 38 1 19 47
M  V30 39 2 20 21
M  V30 40 1 20 48
M  V30 41 1 21 22
M  V30 42 1 21 23
M  V30 43 1 22 26
M  V30 44 2 23 24
M  V30 45 1 24 25
M  V30 46 1 24 27
M  V30 47 2 25 26
M  V30 48 1 25 49
M  V30 49 1 26 50
M  V30 50 2 27 28
M  V30 51 1 27 32
M  V30 52 1 28 29
M  V30 53 1 28 51
M  V30 54 2 29 30
M  V30 55 1 29 52
M  V30 56 1 30 31
M  V30 57 1 30 53
M  V30 58 2 31 32
M  V30 59 1 31 54
M  V30 60 1 32 55
M  V30 END BOND
M  V30 END CTAB
M  END
> <s_m_entry_id>
814

> <s_m_entry_name>
result.7189

> <s_m_Source_Path>
D:\OneDrive - zju.edu.cn\DOC\A-Finished\LCK_VS\Planet\LCK-8617

> <s_m_Source_File>
glide-dock_SP_top1262_2_pv.maegz

> <i_m_Source_File_Index>
814

> <PLANET_affinity>
7.44

> <i_lp_mmshare_version>
54117

> <i_f3d_flags>
0

> <s_epik_input>
W09IXVtDQF0xKFtDSDNdKVtDSDJdW0NAQEhdKFtDSDJdMSljMm5jKGMobjIzKWMoW05IMl0pbltjSF1bY0hdMyktYyhbY0hdNClbY0hdW2NIXWMoYzQ1KVtjSF1bY0hdYyhuNSktYzZbY0hdW2NIXVtjSF1bY0hdW2NIXTY=

> <s_epik_cmdline>
J2VwaWtfcHl0aG9uJywgJy1waCcsICc3LjAnLCAnLXRuJywgJzgnLCAnLW1hJywgJzUwMCcsICctaW1hZScsICc8aW5maWxlLm1hZT4nLCAnLW9tYWUnLCAnPG91dGZpbGUubWFlPic=

> <r_epik_Ionization_Penalty>
  0.0248

> <r_epik_Ionization_Penalty_Charging>
  0.0000

> <r_epik_Ionization_Penalty_Neutral>
  0.0248

> <r_epik_State_Penalty>
  0.0172

> <r_epik_Charging_Adjusted_Penalty>
0.0172046

> <i_epik_Tot_Q>
0

> <i_epik_Tot_abs_Q>
0

> <s_lp_Force_Field>
S-OPLS

> <r_lp_Energy>
51.8231

> <b_lp_Chiralities_Consistent>
1

> <s_lp_Variant>
O[C@@]1(C)C[C@@H](C2=NC(C3=CC=C4C=CC(C5=CC=CC=C5)=NC4=C3)=C6C(N)=NC=CN62)C1-1

> <s_i_glide_gridfile>
glide-grid_1

> <i_i_glide_lignum>
2032

> <i_i_glide_rotatable_bonds>
4

> <r_i_docking_score>
-7.68568412379726

> <r_i_glide_ligand_efficiency>
-0.240177628868664

> <r_i_glide_ligand_efficiency_sa>
-0.762516440569798

> <r_i_glide_ligand_efficiency_ln>
-1.72103417915485

> <r_i_glide_gscore>
-7.70288412379726

> <r_i_glide_lipo>
-2.45028710193633

> <r_i_glide_hbond>
-0.592504983823062

> <r_i_glide_metal>
0

> <r_i_glide_rewards>
-1.88729353680396

> <r_i_glide_evdw>
-40.2140998840332

> <r_i_glide_ecoul>
-6.64108800888062

> <r_i_glide_erotb>
0.234069694299845

> <r_i_glide_esite>
0

> <r_i_glide_emodel>
-69.5523679155158

> <r_i_glide_energy>
-46.8551878929138

> <r_i_glide_einternal>
2.66182374954224

> <i_i_glide_confnum>
36

> <i_i_glide_posenum>
111

> <r_i_glide_eff_state_penalty>
0.0172

> <s_m_subgroup_title>
glide-dock_SP_top1262_2_pv

> <s_m_subgroupid>
glide-dock_SP_top1262_2_pv

> <b_m_subgroup_collapsed>
0

$$$$
O=S(C1=CC=C(C=C1)NC2=NC3=NC=NC3=C(C4=CC(C5=CC=CC=C5)=CC=C4)N2)(N)=O
                    3D
 Schrodinger Suite 2021-3.
  0  0  0     0  0            999 V3000
M  V30 BEGIN CTAB
M  V30 COUNTS 50 54 0 0 0
M  V30 BEGIN ATOM
M  V30 1 O  34.3722 37.3340 83.0615 0
M  V30 2 S  33.6031 36.7979 84.1880 0
M  V30 3 O  33.5791 37.4654 85.4932 0
M  V30 4 N  34.1395 35.1571 84.4434 0
M  V30 5 C  31.9127 36.6473 83.6260 0
M  V30 6 C  30.9026 37.4150 84.2077 0
M  V30 7 C  29.5787 37.2217 83.8197 0
M  V30 8 C  29.2604 36.2683 82.8434 0
M  V30 9 C  30.2863 35.5568 82.2247 0
M  V30 10 C  31.6093 35.7382 82.6132 0
M  V30 11 N  27.9502 35.9548 82.4448 0
M  V30 12 C  26.6913 36.1382 83.0227 0
M  V30 13 N  25.6928 35.4627 82.3982 0
M  V30 14 N  26.5685 36.9190 84.1268 0
M  V30 15 C  25.3398 37.0790 84.6922 0
M  V30 16 C  24.2326 36.4175 84.1194 0
M  V30 17 C  24.5034 35.6400 82.9682 0
M  V30 18 N  22.8958 36.3719 84.4335 0
M  V30 19 C  22.3714 35.6365 83.4855 0
M  V30 20 N  23.2831 35.1566 82.5793 0
M  V30 21 C  25.2738 37.9688 85.8935 0
M  V30 22 C  24.1204 38.7107 86.1838 0
M  V30 23 C  24.0350 39.5583 87.2974 0
M  V30 24 C  25.1593 39.6719 88.1258 0
M  V30 25 C  26.3218 38.9547 87.8563 0
M  V30 26 C  26.3736 38.1091 86.7521 0
M  V30 27 C  22.7829 40.3236 87.5779 0
M  V30 28 C  21.5259 39.7715 87.2866 0
M  V30 29 C  20.3594 40.4971 87.5116 0
M  V30 30 C  20.4417 41.7808 88.0412 0
M  V30 31 C  21.6760 42.3441 88.3469 0
M  V30 32 C  22.8403 41.6164 88.1177 0
M  V30 33 H  34.8572 34.8206 83.7998 0
M  V30 34 H  34.2823 34.8701 85.4201 0
M  V30 35 H  31.1337 38.1352 84.9801 0
M  V30 36 H  28.8211 37.8197 84.2980 0
M  V30 37 H  30.0615 34.8231 81.4640 0
M  V30 38 H  32.3880 35.1516 82.1467 0
M  V30 39 H  27.8917 35.4464 81.5683 0
M  V30 40 H  21.3289 35.3859 83.3610 0
M  V30 41 H  23.0341 34.5492 81.8083 0
M  V30 42 H  23.2758 38.6522 85.5149 0
M  V30 43 H  25.1347 40.3109 88.9961 0
M  V30 44 H  27.1808 39.0491 88.5048 0
M  V30 45 H  27.2827 37.5583 86.5612 0
M  V30 46 H  21.4448 38.7760 86.8752 0
M  V30 47 H  19.3952 40.0758 87.2624 0
M  V30 48 H  19.5376 42.3557 88.1907 0
M  V30 49 H  21.7278 43.3512 88.7349 0
M  V30 50 H  23.7914 42.0799 88.3350 0
M  V30 END ATOM
M  V30 BEGIN BOND
M  V30 1 2 1 2
M  V30 2 2 2 3
M  V30 3 1 2 4
M  V30 4 1 2 5
M  V30 5 1 4 33
M  V30 6 1 4 34
M  V30 7 2 5 6
M  V30 8 1 5 10
M  V30 9 1 6 7
M  V30 10 1 6 35
M  V30 11 2 7 8
M  V30 12 1 7 36
M  V30 13 1 8 9
M  V30 14 1 8 11
M  V30 15 2 9 10
M  V30 16 1 9 37
M  V30 17 1 10 38
M  V30 18 1 11 12
M  V30 19 1 11 39
M  V30 20 2 12 13
M  V30 21 1 12 14
M  V30 22 1 13 17
M  V30 23 2 14 15
M  V30 24 1 15 16
M  V30 25 1 15 21
M  V30 26 2 16 17
M  V30 27 1 16 18
M  V30 28 1 17 20
M  V30 29 2 18 19
M  V30 30 1 19 20
M  V30 31 1 19 40
M  V30 32 1 20 41
M  V30 33 2 21 22
M  V30 34 1 21 26
M  V30 35 1 22 23
M  V30 36 1 22 42
M  V30 37 2 23 24
M  V30 38 1 23 27
M  V30 39 1 24 25
M  V30 40 1 24 43
M  V30 41 2 25 26
M  V30 42 1 25 44
M  V30 43 1 26 45
M  V30 44 2 27 28
M  V30 45 1 27 32
M  V30 46 1 28 29
M  V30 47 1 28 46
M  V30 48 2 29 30
M  V30 49 1 29 47
M  V30 50 1 30 31
M  V30 51 1 30 48
M  V30 52 2 31 32
M  V30 53 1 31 49
M  V30 54 1 32 50
M  V30 END BOND
M  V30 END CTAB
M  END
> <s_m_entry_id>
822

> <s_m_entry_name>
result.7818

> <s_m_Source_Path>
D:\OneDrive - zju.edu.cn\DOC\A-Finished\LCK_VS\Planet\LCK-8617

> <s_m_Source_File>
glide-dock_SP_top1262_2_pv.maegz

> <i_m_Source_File_Index>
822

> <PLANET_affinity>
7.561

> <i_lp_mmshare_version>
54117

> <i_f3d_flags>
0

> <s_epik_input>
Tz1TKD1PKShbTkgyXSljMVtjSF1bY0hdYyhbY0hdW2NIXTEpW05IXWMobmMoYzIzKVtuSF1bY0hdbjMpbmMyLWM0W2NIXWMoW2NIXVtjSF1bY0hdNCktYzVbY0hdW2NIXVtjSF1bY0hdW2NIXTU=

> <s_epik_cmdline>
J2VwaWtfcHl0aG9uJywgJy1waCcsICc3LjAnLCAnLXRuJywgJzgnLCAnLW1hJywgJzUwMCcsICctaW1hZScsICc8aW5maWxlLm1hZT4nLCAnLW9tYWUnLCAnPG91dGZpbGUubWFlPic=

> <r_epik_Ionization_Penalty>
  0.0012

> <r_epik_Ionization_Penalty_Charging>
  0.0000

> <r_epik_Ionization_Penalty_Neutral>
  0.0012

> <r_epik_State_Penalty>
  0.0443

> <r_epik_Charging_Adjusted_Penalty>
0.0443271

> <i_epik_Tot_Q>
0

> <i_epik_Tot_abs_Q>
0

> <s_lp_Force_Field>
S-OPLS

> <r_lp_Energy>
36.4728

> <b_lp_Chiralities_Consistent>
1

> <s_lp_Variant>
O=S(C1=CC=C(C=C1)NC2=NC3=NC=NC3=C(C4=CC(C5=CC=CC=C5)=CC=C4)N2)(N)=O-1

> <s_i_glide_gridfile>
glide-grid_1

> <i_i_glide_lignum>
1854

> <i_i_glide_rotatable_bonds>
5

> <r_i_docking_score>
-7.68010293811529

> <r_i_glide_ligand_efficiency>
-0.240003216816103

> <r_i_glide_ligand_efficiency_sa>
-0.761962716819013

> <r_i_glide_ligand_efficiency_ln>
-1.71978439954328

> <r_i_glide_gscore>
-7.72440293811529

> <r_i_glide_lipo>
-1.85706381589057

> <r_i_glide_hbond>
-0.71730926381449

> <r_i_glide_metal>
0

> <r_i_glide_rewards>
-1.94829021074875

> <r_i_glide_evdw>
-42.3323745727539

> <r_i_glide_ecoul>
-8.65451145172119

> <r_i_glide_erotb>
0.285773368869401

> <r_i_glide_esite>
-0.0727175701349982

> <r_i_glide_emodel>
-72.7314486316115

> <r_i_glide_energy>
-50.9868860244751

> <r_i_glide_einternal>
1.2361741065979

> <i_i_glide_confnum>
9

> <i_i_glide_posenum>
181

> <r_i_glide_eff_state_penalty>
0.0443

> <s_m_subgroup_title>
glide-dock_SP_top1262_2_pv

> <s_m_subgroupid>
glide-dock_SP_top1262_2_pv

> <b_m_subgroup_collapsed>
0

$$$$
O=C(C1=CC(N(C)C2=C1C=CC=C2)=O)NC3=CC=C(OCCO4)C4=C3
                    3D
 Schrodinger Suite 2021-3.
  0  0  0     0  0            999 V3000
M  V30 BEGIN CTAB
M  V30 COUNTS 41 44 0 0 0
M  V30 BEGIN ATOM
M  V30 1 C  28.7569 38.0934 84.3057 0
M  V30 2 C  28.8801 39.1456 85.2110 0
M  V30 3 C  27.7809 39.5606 85.9541 0
M  V30 4 C  26.5468 38.9383 85.7788 0
M  V30 5 C  26.3968 37.8896 84.8583 0
M  V30 6 C  27.5211 37.4462 84.1207 0
M  V30 7 C  25.0865 37.2105 84.6274 0
M  V30 8 C  25.0646 36.1885 83.7284 0
M  V30 9 C  26.2140 35.6225 83.0569 0
M  V30 10 O  26.0790 34.5740 82.4326 0
M  V30 11 N  27.3739 36.3258 83.2447 0
M  V30 12 C  28.5870 35.7902 82.5936 0
M  V30 13 C  23.8148 37.6076 85.2140 0
M  V30 14 O  23.4693 38.7873 85.2541 0
M  V30 15 N  23.0790 36.5796 85.6993 0
M  V30 16 C  21.7709 36.6163 86.1998 0
M  V30 17 C  21.3985 35.6194 87.1115 0
M  V30 18 C  20.1041 35.5901 87.6411 0
M  V30 19 C  20.8218 37.5572 85.7731 0
M  V30 20 C  19.5305 37.5195 86.2855 0
M  V30 21 C  19.1812 36.5583 87.2462 0
M  V30 22 O  18.6528 38.4962 85.8594 0
M  V30 23 C  17.2840 38.2392 86.1886 0
M  V30 24 C  17.1672 37.6969 87.6344 0
M  V30 25 O  17.9062 36.4780 87.7663 0
M  V30 26 H  29.6426 37.7915 83.7649 0
M  V30 27 H  29.8371 39.6333 85.3463 0
M  V30 28 H  27.8859 40.3698 86.6631 0
M  V30 29 H  25.7109 39.2881 86.3652 0
M  V30 30 H  24.1302 35.7002 83.4755 0
M  V30 31 H  29.0260 36.5376 81.9311 0
M  V30 32 H  29.3322 35.5321 83.3501 0
M  V30 33 H  28.4205 34.8865 81.9991 0
M  V30 34 H  23.5322 35.6800 85.7326 0
M  V30 35 H  22.1031 34.8612 87.4238 0
M  V30 36 H  19.8206 34.8180 88.3435 0
M  V30 37 H  21.0624 38.3153 85.0439 0
M  V30 38 H  16.7072 39.1545 86.0503 0
M  V30 39 H  16.8846 37.4992 85.4960 0
M  V30 40 H  17.6008 38.4266 88.3185 0
M  V30 41 H  16.1256 37.5545 87.9173 0
M  V30 END ATOM
M  V30 BEGIN BOND
M  V30 1 2 1 2
M  V30 2 1 1 6
M  V30 3 1 1 26
M  V30 4 1 2 3
M  V30 5 1 2 27
M  V30 6 2 3 4
M  V30 7 1 3 28
M  V30 8 1 4 5
M  V30 9 1 4 29
M  V30 10 2 5 6
M  V30 11 1 5 7
M  V30 12 1 6 11
M  V30 13 2 7 8
M  V30 14 1 7 13
M  V30 15 1 8 9
M  V30 16 1 8 30
M  V30 17 2 9 10
M  V30 18 1 9 11
M  V30 19 1 11 12
M  V30 20 1 12 31
M  V30 21 1 12 32
M  V30 22 1 12 33
M  V30 23 2 13 14
M  V30 24 1 13 15
M  V30 25 1 15 16
M  V30 26 1 15 34
M  V30 27 2 16 17
M  V30 28 1 16 19
M  V30 29 1 17 18
M  V30 30 1 17 35
M  V30 31 2 18 21
M  V30 32 1 18 36
M  V30 33 2 19 20
M  V30 34 1 19 37
M  V30 35 1 20 21
M  V30 36 1 20 22
M  V30 37 1 21 25
M  V30 38 1 22 23
M  V30 39 1 23 24
M  V30 40 1 23 38
M  V30 41 1 23 39
M  V30 42 1 24 25
M  V30 43 1 24 40
M  V30 44 1 24 41
M  V30 END BOND
M  V30 END CTAB
M  END
> <s_m_entry_id>
836

> <s_m_entry_name>
result.4534

> <s_m_Source_Path>
D:\OneDrive - zju.edu.cn\DOC\A-Finished\LCK_VS\Planet\LCK-8617

> <s_m_Source_File>
glide-dock_SP_top1262_2_pv.maegz

> <i_m_Source_File_Index>
836

> <PLANET_affinity>
7.138

> <i_lp_mmshare_version>
54117

> <i_f3d_flags>
0

> <s_epik_input>
W2NIXTFbY0hdW2NIXVtjSF1jKGMxMiluKFtDSDNdKWMoPU8pW2NIXWMyQyg9TylbTkhdYyhbY0hdMylbY0hdW2NIXWMoYzM0KU9bQ0gyXVtDSDJdTzQ=

> <s_epik_cmdline>
J2VwaWtfcHl0aG9uJywgJy1waCcsICc3LjAnLCAnLXRuJywgJzgnLCAnLW1hJywgJzUwMCcsICctaW1hZScsICc8aW5maWxlLm1hZT4nLCAnLW9tYWUnLCAnPG91dGZpbGUubWFlPic=

> <r_epik_Ionization_Penalty>
  0.0000

> <r_epik_Ionization_Penalty_Charging>
  0.0000

> <r_epik_Ionization_Penalty_Neutral>
  0.0000

> <r_epik_State_Penalty>
  0.0000

> <r_epik_Charging_Adjusted_Penalty>
1.94168e-07

> <i_epik_Tot_Q>
0

> <i_epik_Tot_abs_Q>
0

> <s_lp_Force_Field>
S-OPLS

> <r_lp_Energy>
58.1124

> <b_lp_Chiralities_Consistent>
1

> <s_lp_Variant>
O=C(C1=CC(N(C)C2=C1C=CC=C2)=O)NC3=CC=C(OCCO4)C4=C3-1

> <s_i_glide_gridfile>
glide-grid_1

> <i_i_glide_lignum>
2482

> <i_i_glide_rotatable_bonds>
3

> <r_i_docking_score>
-7.6701342517652

> <r_i_glide_ligand_efficiency>
-0.306805370070608

> <r_i_glide_ligand_efficiency_sa>
-0.897104343302864

> <r_i_glide_ligand_efficiency_ln>
-1.81805167304369

> <r_i_glide_gscore>
-7.6701342517652

> <r_i_glide_lipo>
-3.12083022558417

> <r_i_glide_hbond>
-0.32

> <r_i_glide_metal>
0

> <r_i_glide_rewards>
-2.03535795133168

> <r_i_glide_evdw>
-40.5607070922852

> <r_i_glide_ecoul>
-4.44486427307129

> <r_i_glide_erotb>
0.500818920725604

> <r_i_glide_esite>
0

> <r_i_glide_emodel>
-65.3163938979727

> <r_i_glide_energy>
-45.0055713653564

> <r_i_glide_einternal>
0.449842900037766

> <i_i_glide_confnum>
47

> <i_i_glide_posenum>
42

> <r_i_glide_eff_state_penalty>
0

> <r_lp_tautomer_probability>
1

> <s_m_subgroup_title>
glide-dock_SP_top1262_2_pv

> <s_m_subgroupid>
glide-dock_SP_top1262_2_pv

> <b_m_subgroup_collapsed>
0

$$$$
O=C(C1=C(NC2=CC=C(C)C(C)=C2)C3=CC=C(C4=CC=NC=C4)C=C3N=C1)N
                    3D
 Schrodinger Suite 2021-3.
  0  0  0     0  0            999 V3000
M  V30 BEGIN CTAB
M  V30 COUNTS 48 51 0 0 0
M  V30 BEGIN ATOM
M  V30 1 C  17.9172 38.4312 85.7320 0
M  V30 2 C  19.1873 37.6431 86.0303 0
M  V30 3 C  20.3000 37.7904 85.1929 0
M  V30 4 C  19.2582 36.7563 87.1180 0
M  V30 5 C  18.0680 36.5277 88.0378 0
M  V30 6 C  20.4373 36.0387 87.3494 0
M  V30 7 C  21.5487 36.2140 86.5285 0
M  V30 8 C  21.4812 37.0899 85.4455 0
M  V30 9 N  22.5632 37.2345 84.5717 0
M  V30 10 C  23.9547 37.2768 84.8158 0
M  V30 11 C  24.8528 36.5578 83.9740 0
M  V30 12 C  24.4436 35.5810 82.8733 0
M  V30 13 O  25.2508 35.1569 82.0482 0
M  V30 14 N  23.1835 35.1567 82.8433 0
M  V30 15 C  26.2224 36.7575 84.1713 0
M  V30 16 N  26.7590 37.5574 85.1166 0
M  V30 17 C  25.9272 38.2105 85.9617 0
M  V30 18 C  24.5066 38.1192 85.8512 0
M  V30 19 C  26.5177 39.0262 86.9581 0
M  V30 20 C  25.7346 39.7808 87.8328 0
M  V30 21 C  24.3461 39.7161 87.7076 0
M  V30 22 C  23.7348 38.9144 86.7480 0
M  V30 23 C  26.3642 40.6558 88.8638 0
M  V30 24 C  27.4936 41.4338 88.5639 0
M  V30 25 C  28.0382 42.2614 89.5497 0
M  V30 26 N  27.5283 42.3478 90.8035 0
M  V30 27 C  26.4417 41.5899 91.0939 0
M  V30 28 C  25.8362 40.7436 90.1613 0
M  V30 29 H  17.9732 38.9625 84.7815 0
M  V30 30 H  17.7264 39.1566 86.5251 0
M  V30 31 H  17.0552 37.7653 85.6842 0
M  V30 32 H  20.2500 38.4632 84.3485 0
M  V30 33 H  18.3394 35.9555 88.9246 0
M  V30 34 H  17.6528 37.4757 88.3840 0
M  V30 35 H  17.2843 35.9868 87.5055 0
M  V30 36 H  20.4920 35.3281 88.1612 0
M  V30 37 H  22.4482 35.6485 86.7241 0
M  V30 38 H  22.3104 37.4449 83.6175 0
M  V30 39 H  22.5502 35.4750 83.5632 0
M  V30 40 H  22.8630 34.4815 82.1569 0
M  V30 41 H  26.9535 36.2494 83.5578 0
M  V30 42 H  27.5961 39.0678 87.0245 0
M  V30 43 H  23.7219 40.3091 88.3580 0
M  V30 44 H  22.6587 38.9251 86.6919 0
M  V30 45 H  27.9319 41.4156 87.5777 0
M  V30 46 H  28.9014 42.8751 89.3364 0
M  V30 47 H  26.0510 41.6738 92.0976 0
M  V30 48 H  24.9703 40.1644 90.4456 0
M  V30 END ATOM
M  V30 BEGIN BOND
M  V30 1 1 1 2
M  V30 2 1 1 29
M  V30 3 1 1 30
M  V30 4 1 1 31
M  V30 5 2 2 3
M  V30 6 1 2 4
M  V30 7 1 3 8
M  V30 8 1 3 32
M  V30 9 1 4 5
M  V30 10 2 4 6
M  V30 11 1 5 33
M  V30 12 1 5 34
M  V30 13 1 5 35
M  V30 14 1 6 7
M  V30 15 1 6 36
M  V30 16 2 7 8
M  V30 17 1 7 37
M  V30 18 1 8 9
M  V30 19 1 9 10
M  V30 20 1 9 38
M  V30 21 2 10 11
M  V30 22 1 10 18
M  V30 23 1 11 12
M  V30 24 1 11 15
M  V30 25 2 12 13
M  V30 26 1 12 14
M  V30 27 1 14 39
M  V30 28 1 14 40
M  V30 29 2 15 16
M  V30 30 1 15 41
M  V30 31 1 16 17
M  V30 32 2 17 18
M  V30 33 1 17 19
M  V30 34 1 18 22
M  V30 35 2 19 20
M  V30 36 1 19 42
M  V30 37 1 20 21
M  V30 38 1 20 23
M  V30 39 2 21 22
M  V30 40 1 21 43
M  V30 41 1 22 44
M  V30 42 2 23 24
M  V30 43 1 23 28
M  V30 44 1 24 25
M  V30 45 1 24 45
M  V30 46 2 25 26
M  V30 47 1 25 46
M  V30 48 1 26 27
M  V30 49 2 27 28
M  V30 50 1 27 47
M  V30 51 1 28 48
M  V30 END BOND
M  V30 END CTAB
M  END
> <s_m_entry_id>
837

> <s_m_entry_name>
result.3934

> <s_m_Source_Path>
D:\OneDrive - zju.edu.cn\DOC\A-Finished\LCK_VS\Planet\LCK-8617

> <s_m_Source_File>
glide-dock_SP_top1262_2_pv.maegz

> <i_m_Source_File_Index>
837

> <PLANET_affinity>
7.996

> <i_lp_mmshare_version>
54117

> <i_f3d_flags>
0

> <s_epik_input>
W0NIM11jMVtjSF1bY0hdYyhbY0hdYzFbQ0gzXSlbTkhdYyhjKFtjSF1uMilDKD1PKVtOSDJdKWMoYzIzKVtjSF1bY0hdYyhbY0hdMyktYzRbY0hdW2NIXW5bY0hdW2NIXTQ=

> <s_epik_cmdline>
J2VwaWtfcHl0aG9uJywgJy1waCcsICc3LjAnLCAnLXRuJywgJzgnLCAnLW1hJywgJzUwMCcsICctaW1hZScsICc8aW5maWxlLm1hZT4nLCAnLW9tYWUnLCAnPG91dGZpbGUubWFlPic=

> <r_epik_Ionization_Penalty>
  0.0328

> <r_epik_Ionization_Penalty_Charging>
  0.0000

> <r_epik_Ionization_Penalty_Neutral>
  0.0328

> <r_epik_State_Penalty>
  0.0224

> <r_epik_Charging_Adjusted_Penalty>
0.0223638

> <i_epik_Tot_Q>
0

> <i_epik_Tot_abs_Q>
0

> <s_lp_Force_Field>
S-OPLS

> <r_lp_Energy>
50.0098

> <b_lp_Chiralities_Consistent>
1

> <s_lp_Variant>
O=C(C1=C(NC2=CC=C(C)C(C)=C2)C3=CC=C(C4=CC=NC=C4)C=C3N=C1)N-1

> <s_i_glide_gridfile>
glide-grid_1

> <i_i_glide_lignum>
1294

> <i_i_glide_rotatable_bonds>
4

> <r_i_docking_score>
-7.66828486714256

> <r_i_glide_ligand_efficiency>
-0.273867316683663

> <r_i_glide_ligand_efficiency_sa>
-0.831622472675078

> <r_i_glide_ligand_efficiency_ln>
-1.77006529796361

> <r_i_glide_gscore>
-7.69068486714256

> <r_i_glide_lipo>
-3.29278225673406

> <r_i_glide_hbond>
-0.608

> <r_i_glide_metal>
0

> <r_i_glide_rewards>
-1.39392323733609

> <r_i_glide_evdw>
-40.3301658630371

> <r_i_glide_ecoul>
-5.36899471282959

> <r_i_glide_erotb>
0.425878127003886

> <r_i_glide_esite>
0

> <r_i_glide_emodel>
-64.4771038232163

> <r_i_glide_energy>
-45.6991605758667

> <r_i_glide_einternal>
4.77383852005005

> <i_i_glide_confnum>
2

> <i_i_glide_posenum>
222

> <r_i_glide_eff_state_penalty>
0.0224

> <s_m_subgroup_title>
glide-dock_SP_top1262_2_pv

> <s_m_subgroupid>
glide-dock_SP_top1262_2_pv

> <b_m_subgroup_collapsed>
0

$$$$
N#CC1=CC=NC(NC2=NC(N3CC(F)(F)CC3)=CC(C4CCN(C5COC5)CC4)=C2)=C1
                    3D
 Schrodinger Suite 2021-3.
  0  0  0     0  0            999 V3000
M  V30 BEGIN CTAB
M  V30 COUNTS 59 63 0 0 0
M  V30 BEGIN ATOM
M  V30 1 N  23.2759 38.2487 86.4956 0
M  V30 2 C  23.6927 37.5900 85.6393 0
M  V30 3 C  24.2170 36.7619 84.5641 0
M  V30 4 C  23.3627 35.9227 83.8481 0
M  V30 5 C  23.9031 35.1579 82.8172 0
M  V30 6 N  25.2117 35.2063 82.4576 0
M  V30 7 C  26.0419 36.0168 83.1633 0
M  V30 8 C  25.5739 36.8052 84.2276 0
M  V30 9 N  27.3794 35.9721 82.7415 0
M  V30 10 C  28.5590 36.5895 83.1779 0
M  V30 11 N  28.5093 37.5530 84.1241 0
M  V30 12 C  29.6515 38.1682 84.5142 0
M  V30 13 N  29.5149 39.1824 85.4747 0
M  V30 14 C  30.5764 40.0674 85.9667 0
M  V30 15 C  29.9144 41.1842 86.7764 0
M  V30 16 F  29.6740 42.2410 85.9987 0
M  V30 17 F  30.6601 41.5592 87.8147 0
M  V30 18 C  28.2578 39.6297 86.0882 0
M  V30 19 C  28.6079 40.5695 87.2381 0
M  V30 20 C  30.8943 37.8079 83.9833 0
M  V30 21 C  30.9578 36.8015 83.0116 0
M  V30 22 C  29.7640 36.1998 82.5944 0
M  V30 23 C  32.2987 36.4145 82.3836 0 CFG=2
M  V30 24 C  32.4841 37.1305 81.0290 0
M  V30 25 C  33.7777 36.7297 80.3015 0
M  V30 26 N  33.8056 35.1892 80.1594 0 CHG=1 CFG=2
M  V30 27 C  33.8081 34.5043 81.5484 0
M  V30 28 C  32.5115 34.8797 82.2865 0
M  V30 29 C  35.0283 34.7450 79.3234 0
M  V30 30 C  35.0353 33.2861 78.8468 0
M  V30 31 O  35.2807 33.7273 77.4446 0
M  V30 32 C  35.0316 35.1407 77.8407 0
M  V30 33 H  22.3077 35.8532 84.0804 0
M  V30 34 H  23.2829 34.4869 82.2438 0
M  V30 35 H  26.2242 37.4529 84.7894 0
M  V30 36 H  27.5169 35.3587 81.9506 0
M  V30 37 H  31.1190 40.5127 85.1326 0
M  V30 38 H  31.2731 39.5138 86.6028 0
M  V30 39 H  27.7285 38.7588 86.4813 0
M  V30 40 H  27.6120 40.1123 85.3534 0
M  V30 41 H  28.7294 40.0198 88.1749 0
M  V30 42 H  27.8390 41.3233 87.4110 0
M  V30 43 H  31.7960 38.3061 84.3113 0
M  V30 44 H  29.7646 35.4463 81.8213 0
M  V30 45 H  33.0577 36.7973 83.0684 0
M  V30 46 H  31.6339 36.9073 80.3844 0
M  V30 47 H  32.5150 38.2107 81.1818 0
M  V30 48 H  34.6687 37.0251 80.8586 0
M  V30 49 H  33.8197 37.1609 79.2997 0
M  V30 50 H  34.6999 34.8419 82.0784 0
M  V30 51 H  33.8744 33.4251 81.3881 0
M  V30 52 H  32.5715 34.4594 83.2924 0
M  V30 53 H  31.6834 34.3882 81.7775 0
M  V30 54 H  35.9026 35.0572 79.8991 0
M  V30 55 H  35.8735 32.6778 79.1875 0
M  V30 56 H  34.0834 32.7553 78.8961 0
M  V30 57 H  34.0817 35.4687 77.4157 0
M  V30 58 H  35.8712 35.7558 77.5192 0
M  V30 59 H  32.9608 34.9075 79.6685 0
M  V30 END ATOM
M  V30 BEGIN BOND
M  V30 1 3 1 2
M  V30 2 1 2 3
M  V30 3 2 3 4
M  V30 4 1 3 8
M  V30 5 1 4 5
M  V30 6 1 4 33
M  V30 7 2 5 6
M  V30 8 1 5 34
M  V30 9 1 6 7
M  V30 10 2 7 8
M  V30 11 1 7 9
M  V30 12 1 8 35
M  V30 13 1 9 10
M  V30 14 1 9 36
M  V30 15 2 10 11
M  V30 16 1 10 22
M  V30 17 1 11 12
M  V30 18 1 12 13
M  V30 19 2 12 20
M  V30 20 1 13 14
M  V30 21 1 13 18
M  V30 22 1 14 15
M  V30 23 1 14 37
M  V30 24 1 14 38
M  V30 25 1 15 16
M  V30 26 1 15 17
M  V30 27 1 15 19
M  V30 28 1 18 19
M  V30 29 1 18 39
M  V30 30 1 18 40
M  V30 31 1 19 41
M  V30 32 1 19 42
M  V30 33 1 20 21
M  V30 34 1 20 43
M  V30 35 2 21 22
M  V30 36 1 21 23
M  V30 37 1 22 44
M  V30 38 1 23 24
M  V30 39 1 23 28
M  V30 40 1 23 45
M  V30 41 1 24 25
M  V30 42 1 24 46
M  V30 43 1 24 47
M  V30 44 1 25 26
M  V30 45 1 25 48
M  V30 46 1 25 49
M  V30 47 1 26 27
M  V30 48 1 26 29
M  V30 49 1 26 59
M  V30 50 1 27 28
M  V30 51 1 27 50
M  V30 52 1 27 51
M  V30 53 1 28 52
M  V30 54 1 28 53
M  V30 55 1 29 30
M  V30 56 1 29 32
M  V30 57 1 29 54
M  V30 58 1 30 31
M  V30 59 1 30 55
M  V30 60 1 30 56
M  V30 61 1 31 32
M  V30 62 1 32 57
M  V30 63 1 32 58
M  V30 END BOND
M  V30 END CTAB
M  END
> <s_m_entry_id>
839

> <s_m_entry_name>
result.1922

> <s_m_Source_Path>
D:\OneDrive - zju.edu.cn\DOC\A-Finished\LCK_VS\Planet\LCK-8617

> <s_m_Source_File>
glide-dock_SP_top1262_2_pv.maegz

> <i_m_Source_File_Index>
839

> <PLANET_affinity>
7.877

> <i_lp_mmshare_version>
54117

> <i_f3d_flags>
0

> <s_epik_input>
TiNDYzFbY0hdW2NIXW5jKFtjSF0xKVtOSF1jMm5jKE4oW0NIMl1DMyhGKUYpW0NIMl1bQ0gyXTMpW2NIXWMoW2NIXTIpW0NIXTRbQ0gyXVtDSDJdTihbQ0gyXVtDSDJdNClbQ0hdNVtDSDJdT1tDSDJdNQ==

> <s_epik_cmdline>
J2VwaWtfcHl0aG9uJywgJy1waCcsICc3LjAnLCAnLXRuJywgJzgnLCAnLW1hJywgJzUwMCcsICctaW1hZScsICc8aW5maWxlLm1hZT4nLCAnLW9tYWUnLCAnPG91dGZpbGUubWFlPic=

> <r_epik_Ionization_Penalty>
  0.1048

> <r_epik_Ionization_Penalty_Charging>
  0.1030

> <r_epik_Ionization_Penalty_Neutral>
  0.0017

> <r_epik_State_Penalty>
  0.0930

> <r_epik_Charging_Adjusted_Penalty>
0.195989

> <i_epik_Tot_Q>
1

> <i_epik_Tot_abs_Q>
1

> <s_lp_Force_Field>
S-OPLS

> <r_lp_Energy>
25.0882

> <b_lp_Chiralities_Consistent>
1

> <s_lp_Variant>
N#CC1=CC=NC(NC2=NC(N3CC(F)(F)CC3)=CC(C4CCN(C5COC5)CC4)=C2)=C1-2

> <s_i_glide_gridfile>
glide-grid_1

> <i_i_glide_lignum>
1427

> <i_i_glide_rotatable_bonds>
5

> <r_i_docking_score>
-7.66776123735892

> <r_i_glide_ligand_efficiency>
-0.239617538667466

> <r_i_glide_ligand_efficiency_sa>
-0.760738265022694

> <r_i_glide_ligand_efficiency_ln>
-1.71702075632187

> <r_i_glide_gscore>
-7.76076123735892

> <r_i_glide_lipo>
-2.26205308716601

> <r_i_glide_hbond>
-0.475844873229393

> <r_i_glide_metal>
0

> <r_i_glide_rewards>
-1.87158462347537

> <r_i_glide_evdw>
-40.7668876647949

> <r_i_glide_ecoul>
-9.2603063583374

> <r_i_glide_erotb>
0.358682774545072

> <r_i_glide_esite>
-0.0825710910428689

> <r_i_glide_emodel>
-75.5167116516285

> <r_i_glide_energy>
-50.0271940231323

> <r_i_glide_einternal>
4.65415859222412

> <i_i_glide_confnum>
130

> <i_i_glide_posenum>
252

> <r_i_glide_eff_state_penalty>
0.093

> <r_lp_tautomer_probability>
1

> <s_m_subgroup_title>
glide-dock_SP_top1262_2_pv

> <s_m_subgroupid>
glide-dock_SP_top1262_2_pv

> <b_m_subgroup_collapsed>
0

$$$$
O=C(C1=C(C)N(C2=CC=C(Cl)C=C2)N=C1)NC3=CC=C(N4CCC(N5CCOCC5)CC4)C(C#N)=C3
                    3D
 Schrodinger Suite 2021-3.
  0  0  0     0  0            999 V3000
M  V30 BEGIN CTAB
M  V30 COUNTS 66 70 0 0 0
M  V30 BEGIN ATOM
M  V30 1 C  21.3393 36.2788 86.6116 0
M  V30 2 C  20.2653 36.5875 87.4443 0
M  V30 3 C  19.2524 37.4284 86.9878 0
M  V30 4 Cl 17.9248 37.7957 88.0251 0
M  V30 5 C  19.2976 37.9635 85.7014 0
M  V30 6 C  20.3606 37.6468 84.8586 0
M  V30 7 C  21.3831 36.8063 85.3159 0
M  V30 8 N  22.4198 36.4285 84.4389 0
M  V30 9 N  22.0792 35.7112 83.3620 0
M  V30 10 C  23.2064 35.3927 82.7927 0
M  V30 11 C  23.7910 36.6123 84.5418 0
M  V30 12 C  24.4532 37.3829 85.6674 0
M  V30 13 C  24.3175 35.9551 83.4223 0
M  V30 14 C  25.6724 35.6846 83.0379 0
M  V30 15 O  25.9292 34.6402 82.4436 0
M  V30 16 N  26.5614 36.6389 83.3765 0
M  V30 17 C  27.9652 36.6154 83.2447 0
M  V30 18 C  28.6921 35.6118 82.5919 0
M  V30 19 C  30.0808 35.6236 82.6136 0
M  V30 20 C  30.8052 36.6271 83.2719 0
M  V30 21 C  30.0659 37.6817 83.8712 0
M  V30 22 C  30.6791 38.8532 84.4912 0
M  V30 23 N  31.1632 39.7813 84.9824 0
M  V30 24 C  28.6647 37.6544 83.8567 0
M  V30 25 N  32.1966 36.4755 83.3071 0
M  V30 26 C  32.9631 36.0867 82.1109 0
M  V30 27 C  33.9444 34.9454 82.4395 0
M  V30 28 C  34.9585 35.3667 83.5288 0
M  V30 29 C  34.1953 35.9546 84.7348 0
M  V30 30 C  33.1061 36.9826 84.3514 0
M  V30 31 N  35.8480 34.1917 84.0434 0 CHG=1
M  V30 32 C  37.2273 34.7409 84.4906 0
M  V30 33 C  38.0921 33.5858 85.0360 0
M  V30 34 O  38.2141 32.5573 84.0595 0
M  V30 35 C  36.9731 31.9561 83.7022 0
M  V30 36 C  36.0279 32.9967 83.0705 0
M  V30 37 H  22.1126 35.6088 86.9630 0
M  V30 38 H  20.2021 36.1719 88.4409 0
M  V30 39 H  18.5038 38.6111 85.3576 0
M  V30 40 H  20.3839 38.0460 83.8543 0
M  V30 41 H  23.2296 34.7579 81.9171 0
M  V30 42 H  25.2839 36.8250 86.0976 0
M  V30 43 H  24.8501 38.3341 85.3149 0
M  V30 44 H  23.7769 37.6162 86.4876 0
M  V30 45 H  26.1786 37.4429 83.8476 0
M  V30 46 H  28.2200 34.7886 82.0799 0
M  V30 47 H  30.5901 34.7957 82.1398 0
M  V30 48 H  28.1065 38.4463 84.3396 0
M  V30 49 H  33.5095 36.9665 81.7636 0
M  V30 50 H  32.3233 35.7934 81.2769 0
M  V30 51 H  34.4500 34.5970 81.5388 0
M  V30 52 H  33.3599 34.0893 82.7803 0
M  V30 53 H  35.5732 36.1565 83.0915 0
M  V30 54 H  33.7031 35.1558 85.2949 0
M  V30 55 H  34.8882 36.3730 85.4660 0
M  V30 56 H  33.5427 37.9318 84.0374 0
M  V30 57 H  32.5418 37.1707 85.2633 0
M  V30 58 H  37.0453 35.4934 85.2593 0
M  V30 59 H  37.6866 35.2114 83.6191 0
M  V30 60 H  39.0906 33.9505 85.2801 0
M  V30 61 H  37.6770 33.1853 85.9639 0
M  V30 62 H  37.1698 31.1509 82.9940 0
M  V30 63 H  36.5118 31.4908 84.5764 0
M  V30 64 H  36.4231 33.3947 82.1342 0
M  V30 65 H  35.0445 32.5571 82.9029 0
M  V30 66 H  35.4223 33.8189 84.8963 0
M  V30 END ATOM
M  V30 BEGIN BOND
M  V30 1 2 1 2
M  V30 2 1 1 7
M  V30 3 1 1 37
M  V30 4 1 2 3
M  V30 5 1 2 38
M  V30 6 1 3 4
M  V30 7 2 3 5
M  V30 8 1 5 6
M  V30 9 1 5 39
M  V30 10 2 6 7
M  V30 11 1 6 40
M  V30 12 1 7 8
M  V30 13 1 8 9
M  V30 14 1 8 11
M  V30 15 2 9 10
M  V30 16 1 10 13
M  V30 17 1 10 41
M  V30 18 1 11 12
M  V30 19 2 11 13
M  V30 20 1 12 42
M  V30 21 1 12 43
M  V30 22 1 12 44
M  V30 23 1 13 14
M  V30 24 2 14 15
M  V30 25 1 14 16
M  V30 26 1 16 17
M  V30 27 1 16 45
M  V30 28 2 17 18
M  V30 29 1 17 24
M  V30 30 1 18 19
M  V30 31 1 18 46
M  V30 32 2 19 20
M  V30 33 1 19 47
M  V30 34 1 20 21
M  V30 35 1 20 25
M  V30 36 1 21 22
M  V30 37 2 21 24
M  V30 38 3 22 23
M  V30 39 1 24 48
M  V30 40 1 25 26
M  V30 41 1 25 30
M  V30 42 1 26 27
M  V30 43 1 26 49
M  V30 44 1 26 50
M  V30 45 1 27 28
M  V30 46 1 27 51
M  V30 47 1 27 52
M  V30 48 1 28 29
M  V30 49 1 28 31
M  V30 50 1 28 53
M  V30 51 1 29 30
M  V30 52 1 29 54
M  V30 53 1 29 55
M  V30 54 1 30 56
M  V30 55 1 30 57
M  V30 56 1 31 32
M  V30 57 1 31 36
M  V30 58 1 31 66
M  V30 59 1 32 33
M  V30 60 1 32 58
M  V30 61 1 32 59
M  V30 62 1 33 34
M  V30 63 1 33 60
M  V30 64 1 33 61
M  V30 65 1 34 35
M  V30 66 1 35 36
M  V30 67 1 35 62
M  V30 68 1 35 63
M  V30 69 1 36 64
M  V30 70 1 36 65
M  V30 END BOND
M  V30 END CTAB
M  END
> <s_m_entry_id>
853

> <s_m_entry_name>
result.1308

> <s_m_Source_Path>
D:\OneDrive - zju.edu.cn\DOC\A-Finished\LCK_VS\Planet\LCK-8617

> <s_m_Source_File>
glide-dock_SP_top1262_2_pv.maegz

> <i_m_Source_File_Index>
853

> <PLANET_affinity>
7.161

> <i_lp_mmshare_version>
54117

> <i_f3d_flags>
0

> <s_epik_input>
Q2xjMVtjSF1bY0hdYyhbY0hdW2NIXTEpLW4ybltjSF1jKGMyW0NIM10pQyg9TylbTkhdYzNbY0hdW2NIXWMoYyhDI04pW2NIXTMpTjRbQ0gyXVtDSDJdW0NIXShbQ0gyXVtDSDJdNClONVtDSDJdW0NIMl1PW0NIMl1bQ0gyXTU=

> <s_epik_cmdline>
J2VwaWtfcHl0aG9uJywgJy1waCcsICc3LjAnLCAnLXRuJywgJzgnLCAnLW1hJywgJzUwMCcsICctaW1hZScsICc8aW5maWxlLm1hZT4nLCAnLW9tYWUnLCAnPG91dGZpbGUubWFlPic=

> <r_epik_Ionization_Penalty>
  0.1710

> <r_epik_Ionization_Penalty_Charging>
  0.1710

> <r_epik_Ionization_Penalty_Neutral>
  0.0000

> <r_epik_State_Penalty>
  0.1604

> <r_epik_Charging_Adjusted_Penalty>
0.331397

> <i_epik_Tot_Q>
1

> <i_epik_Tot_abs_Q>
1

> <s_lp_Force_Field>
S-OPLS

> <r_lp_Energy>
70.1001

> <b_lp_Chiralities_Consistent>
1

> <s_lp_Variant>
O=C(C1=C(C)N(C2=CC=C(Cl)C=C2)N=C1)NC3=CC=C(N4CCC(N5CCOCC5)CC4)C(C#N)=C3-1

> <s_i_glide_gridfile>
glide-grid_1

> <i_i_glide_lignum>
2442

> <i_i_glide_rotatable_bonds>
6

> <r_i_docking_score>
-7.64914221703696

> <r_i_glide_ligand_efficiency>
-0.212476172695471

> <r_i_glide_ligand_efficiency_sa>
-0.701580863525974

> <r_i_glide_ligand_efficiency_ln>
-1.6688361758168

> <r_i_glide_gscore>
-7.80954221703696

> <r_i_glide_lipo>
-3.26998965513698

> <r_i_glide_hbond>
-0.52

> <r_i_glide_metal>
0

> <r_i_glide_rewards>
-0.913178183342305

> <r_i_glide_evdw>
-49.2476806640625

> <r_i_glide_ecoul>
-6.91946744918823

> <r_i_glide_erotb>
0.479363083453008

> <r_i_glide_esite>
-0.0854333114293258

> <r_i_glide_emodel>
-81.6394675592798

> <r_i_glide_energy>
-56.1671481132507

> <r_i_glide_einternal>
9.21073913574219

> <i_i_glide_confnum>
205

> <i_i_glide_posenum>
64

> <r_i_glide_eff_state_penalty>
0.1604

> <r_lp_tautomer_probability>
1

> <s_m_subgroup_title>
glide-dock_SP_top1262_2_pv

> <s_m_subgroupid>
glide-dock_SP_top1262_2_pv

> <b_m_subgroup_collapsed>
0

$$$$
N#CC1=CC=C(C2=CN=C3C=CC(C4=CC=C(C(N5CCOCC5)=O)C=C4)=CN32)C=C1
                    3D
 Schrodinger Suite 2021-3.
  0  0  0     0  0            999 V3000
M  V30 BEGIN CTAB
M  V30 COUNTS 51 55 0 0 0
M  V30 BEGIN ATOM
M  V30 1 N  17.6801 37.3862 87.8727 0
M  V30 2 C  18.6065 37.1552 87.2230 0
M  V30 3 C  19.7740 36.8581 86.4075 0
M  V30 4 C  19.7859 37.1619 85.0429 0
M  V30 5 C  20.9291 36.9001 84.2893 0
M  V30 6 C  22.0572 36.3539 84.8997 0
M  V30 7 C  22.0279 36.0227 86.2529 0
M  V30 8 C  20.8843 36.2638 87.0015 0
M  V30 9 C  23.3100 36.1713 84.1241 0
M  V30 10 C  23.5972 35.4365 82.9716 0
M  V30 11 N  24.8489 35.5325 82.5700 0
M  V30 12 N  24.5003 36.7873 84.4409 0
M  V30 13 C  25.4204 36.3896 83.4575 0
M  V30 14 C  24.8315 37.6633 85.4433 0
M  V30 15 C  26.1093 38.2268 85.5051 0
M  V30 16 C  27.0381 37.8351 84.5296 0
M  V30 17 C  26.7211 36.9175 83.5181 0
M  V30 18 C  26.4478 39.2231 86.5758 0
M  V30 19 C  25.4505 40.0105 87.1762 0
M  V30 20 C  25.7517 40.9139 88.1943 0
M  V30 21 C  27.0718 41.0656 88.6274 0
M  V30 22 C  28.0812 40.3254 88.0074 0
M  V30 23 C  27.7684 39.4053 87.0097 0
M  V30 24 C  27.4303 42.0497 89.7151 0
M  V30 25 O  28.2647 42.9194 89.4596 0
M  V30 26 N  26.8525 41.9289 90.9451 0
M  V30 27 C  27.1723 42.8858 92.0235 0
M  V30 28 C  25.8177 43.4081 92.5611 0
M  V30 29 O  24.9766 42.3259 92.9639 0
M  V30 30 C  24.6762 41.4325 91.8955 0
M  V30 31 C  25.9780 40.8086 91.3514 0
M  V30 32 H  18.9255 37.6123 84.5664 0
M  V30 33 H  20.9540 37.1599 83.2434 0
M  V30 34 H  22.8906 35.5818 86.7310 0
M  V30 35 H  20.8798 35.9950 88.0435 0
M  V30 36 H  22.8858 34.8152 82.4414 0
M  V30 37 H  24.0425 37.8987 86.1399 0
M  V30 38 H  28.0352 38.2537 84.5343 0
M  V30 39 H  27.4580 36.6351 82.7798 0
M  V30 40 H  24.4211 39.9362 86.8548 0
M  V30 41 H  24.9581 41.5023 88.6333 0
M  V30 42 H  29.1149 40.4387 88.3104 0
M  V30 43 H  28.5741 38.8309 86.5812 0
M  V30 44 H  27.6752 42.3108 92.8017 0
M  V30 45 H  27.8080 43.7143 91.7092 0
M  V30 46 H  25.3111 44.0135 91.8091 0
M  V30 47 H  25.9866 44.0637 93.4153 0
M  V30 48 H  24.1323 41.9522 91.1041 0
M  V30 49 H  24.0085 40.6502 92.2544 0
M  V30 50 H  25.8111 40.0342 90.6038 0
M  V30 51 H  26.4997 40.3326 92.1839 0
M  V30 END ATOM
M  V30 BEGIN BOND
M  V30 1 3 1 2
M  V30 2 1 2 3
M  V30 3 2 3 4
M  V30 4 1 3 8
M  V30 5 1 4 5
M  V30 6 1 4 32
M  V30 7 2 5 6
M  V30 8 1 5 33
M  V30 9 1 6 7
M  V30 10 1 6 9
M  V30 11 2 7 8
M  V30 12 1 7 34
M  V30 13 1 8 35
M  V30 14 2 9 10
M  V30 15 1 9 12
M  V30 16 1 10 11
M  V30 17 1 10 36
M  V30 18 2 11 13
M  V30 19 1 12 13
M  V30 20 1 12 14
M  V30 21 1 13 17
M  V30 22 2 14 15
M  V30 23 1 14 37
M  V30 24 1 15 16
M  V30 25 1 15 18
M  V30 26 2 16 17
M  V30 27 1 16 38
M  V30 28 1 17 39
M  V30 29 2 18 19
M  V30 30 1 18 23
M  V30 31 1 19 20
M  V30 32 1 19 40
M  V30 33 2 20 21
M  V30 34 1 20 41
M  V30 35 1 21 22
M  V30 36 1 21 24
M  V30 37 2 22 23
M  V30 38 1 22 42
M  V30 39 1 23 43
M  V30 40 2 24 25
M  V30 41 1 24 26
M  V30 42 1 26 27
M  V30 43 1 26 31
M  V30 44 1 27 28
M  V30 45 1 27 44
M  V30 46 1 27 45
M  V30 47 1 28 29
M  V30 48 1 28 46
M  V30 49 1 28 47
M  V30 50 1 29 30
M  V30 51 1 30 31
M  V30 52 1 30 48
M  V30 53 1 30 49
M  V30 54 1 31 50
M  V30 55 1 31 51
M  V30 END BOND
M  V30 END CTAB
M  END
> <s_m_entry_id>
854

> <s_m_entry_name>
result.4024

> <s_m_Source_Path>
D:\OneDrive - zju.edu.cn\DOC\A-Finished\LCK_VS\Planet\LCK-8617

> <s_m_Source_File>
glide-dock_SP_top1262_2_pv.maegz

> <i_m_Source_File_Index>
854

> <PLANET_affinity>
7.254

> <i_lp_mmshare_version>
54117

> <i_f3d_flags>
0

> <s_epik_input>
TiNDYzFbY0hdW2NIXWMoW2NIXVtjSF0xKS1jMltjSF1uYyhuMjMpW2NIXVtjSF1jKFtjSF0zKS1jNFtjSF1bY0hdYyhbY0hdW2NIXTQpQyg9TylONVtDSDJdW0NIMl1PW0NIMl1bQ0gyXTU=

> <s_epik_cmdline>
J2VwaWtfcHl0aG9uJywgJy1waCcsICc3LjAnLCAnLXRuJywgJzgnLCAnLW1hJywgJzUwMCcsICctaW1hZScsICc8aW5maWxlLm1hZT4nLCAnLW9tYWUnLCAnPG91dGZpbGUubWFlPic=

> <r_epik_Ionization_Penalty>
  0.0502

> <r_epik_Ionization_Penalty_Charging>
  0.0502

> <r_epik_Ionization_Penalty_Neutral>
  0.0000

> <r_epik_State_Penalty>
  0.0429

> <r_epik_Charging_Adjusted_Penalty>
0.0931472

> <i_epik_Tot_Q>
0

> <i_epik_Tot_abs_Q>
0

> <s_lp_Force_Field>
S-OPLS

> <r_lp_Energy>
45.9837

> <b_lp_Chiralities_Consistent>
1

> <s_lp_Variant>
N#CC1=CC=C(C2=CN=C3C=CC(C4=CC=C(C(N5CCOCC5)=O)C=C4)=CN32)C=C1-1

> <s_i_glide_gridfile>
glide-grid_1

> <i_i_glide_lignum>
2310

> <i_i_glide_rotatable_bonds>
4

> <r_i_docking_score>
-7.64856202866378

> <r_i_glide_ligand_efficiency>
-0.246727807376251

> <r_i_glide_ligand_efficiency_sa>
-0.775065959611516

> <r_i_glide_ligand_efficiency_ln>
-1.72498513773945

> <r_i_glide_gscore>
-7.69146202866378

> <r_i_glide_lipo>
-3.15607436098762

> <r_i_glide_hbond>
-0.00904342320848144

> <r_i_glide_metal>
0

> <r_i_glide_rewards>
-2.50423014118282

> <r_i_glide_evdw>
-44.6029624938965

> <r_i_glide_ecoul>
-1.7590000629425

> <r_i_glide_erotb>
0.47188403085135

> <r_i_glide_esite>
0

> <r_i_glide_emodel>
-65.6581852942335

> <r_i_glide_energy>
-46.361962556839

> <r_i_glide_einternal>
3.50881028175354

> <i_i_glide_confnum>
52

> <i_i_glide_posenum>
142

> <r_i_glide_eff_state_penalty>
0.0429

> <s_m_subgroup_title>
glide-dock_SP_top1262_2_pv

> <s_m_subgroupid>
glide-dock_SP_top1262_2_pv

> <b_m_subgroup_collapsed>
0

$$$$
N[C@@H](CC1=CC=C(C2=NC(N)=NC(O[C@H](C3=CC=C(Cl)C=C3N4N=C(C)C=C4)C(F)(F)F)=C2)...
                    3D
 Schrodinger Suite 2021-3.
  0  0  0     0  0            999 V3000
M  V30 BEGIN CTAB
M  V30 COUNTS 60 63 0 0 0
M  V30 BEGIN ATOM
M  V30 1 O  33.5195 39.7990 81.4543 0 CHG=-1
M  V30 2 C  33.7431 38.6169 81.1159 0
M  V30 3 O  34.8541 38.2049 80.7050 0
M  V30 4 C  32.5436 37.6399 81.2267 0 CFG=1
M  V30 5 N  32.8855 36.3604 80.4439 0 CHG=1
M  V30 6 C  32.1913 37.2703 82.6976 0
M  V30 7 C  30.6990 37.0472 82.9199 0
M  V30 8 C  29.9715 37.9444 83.7032 0
M  V30 9 C  28.6073 37.7526 83.9016 0
M  V30 10 C  27.9407 36.6724 83.3094 0
M  V30 11 C  28.6829 35.7827 82.5187 0
M  V30 12 C  30.0513 35.9578 82.3352 0
M  V30 13 C  26.4807 36.4603 83.5472 0
M  V30 14 N  25.7704 35.8931 82.5301 0
M  V30 15 C  24.4555 35.6755 82.7637 0
M  V30 16 N  23.6829 35.1567 81.7574 0
M  V30 17 N  23.7792 35.9565 83.8851 0
M  V30 18 C  24.4947 36.5181 84.8844 0
M  V30 19 C  25.8597 36.7868 84.7646 0
M  V30 20 O  23.8249 36.8151 86.0459 0
M  V30 21 C  22.4841 37.3414 85.9712 0 CFG=1
M  V30 22 C  21.6783 36.9465 87.2294 0
M  V30 23 F  22.0830 37.6010 88.3085 0
M  V30 24 F  20.3769 37.1933 87.0939 0
M  V30 25 F  21.7883 35.6414 87.4798 0
M  V30 26 C  22.5613 38.8605 85.7058 0
M  V30 27 C  23.7229 39.5521 86.0886 0
M  V30 28 C  23.8777 40.9084 85.8219 0
M  V30 29 C  22.8616 41.6083 85.1856 0
M  V30 30 Cl 23.0722 43.2804 84.8429 0
M  V30 31 C  21.6811 40.9616 84.8338 0
M  V30 32 C  21.5202 39.5905 85.0906 0
M  V30 33 N  20.2922 38.9900 84.7529 0
M  V30 34 N  19.1610 39.4167 85.3334 0
M  V30 35 C  18.1916 38.6956 84.8148 0
M  V30 36 C  16.7704 38.9099 85.2535 0
M  V30 37 C  18.6830 37.7975 83.8650 0
M  V30 38 C  20.0496 37.9866 83.8481 0
M  V30 39 H  31.6879 38.0480 80.6873 0
M  V30 40 H  33.1598 36.5988 79.5011 0
M  V30 41 H  33.6496 35.8761 80.8931 0
M  V30 42 H  32.7458 36.3939 83.0381 0
M  V30 43 H  32.5025 38.0712 83.3727 0
M  V30 44 H  30.4596 38.7923 84.1604 0
M  V30 45 H  28.0683 38.4630 84.5111 0
M  V30 46 H  28.2029 34.9359 82.0487 0
M  V30 47 H  30.5939 35.2465 81.7300 0
M  V30 48 H  24.0401 35.1071 80.8168 0
M  V30 49 H  22.7427 34.8506 81.9758 0
M  V30 50 H  26.4049 37.2214 85.5882 0
M  V30 51 H  21.9480 36.8650 85.1564 0
M  V30 52 H  24.5325 39.0385 86.5853 0
M  V30 53 H  24.7859 41.4150 86.1083 0
M  V30 54 H  20.8952 41.5409 84.3619 0
M  V30 55 H  16.0841 38.3571 84.6164 0
M  V30 56 H  16.6081 38.5686 86.2759 0
M  V30 57 H  16.4728 39.9564 85.2174 0
M  V30 58 H  18.1055 37.1055 83.2712 0
M  V30 59 H  20.8483 37.5443 83.2713 0
M  V30 60 H  32.0861 35.7438 80.3951 0
M  V30 END ATOM
M  V30 BEGIN BOND
M  V30 1 1 1 2
M  V30 2 2 2 3
M  V30 3 1 2 4
M  V30 4 1 4 5
M  V30 5 1 4 6
M  V30 6 1 4 39
M  V30 7 1 5 40
M  V30 8 1 5 41
M  V30 9 1 5 60
M  V30 10 1 6 7
M  V30 11 1 6 42
M  V30 12 1 6 43
M  V30 13 2 7 8
M  V30 14 1 7 12
M  V30 15 1 8 9
M  V30 16 1 8 44
M  V30 17 2 9 10
M  V30 18 1 9 45
M  V30 19 1 10 11
M  V30 20 1 10 13
M  V30 21 2 11 12
M  V30 22 1 11 46
M  V30 23 1 12 47
M  V30 24 2 13 14
M  V30 25 1 13 19
M  V30 26 1 14 15
M  V30 27 1 15 16
M  V30 28 2 15 17
M  V30 29 1 16 48
M  V30 30 1 16 49
M  V30 31 1 17 18
M  V30 32 2 18 19
M  V30 33 1 18 20
M  V30 34 1 19 50
M  V30 35 1 20 21
M  V30 36 1 21 22
M  V30 37 1 21 26
M  V30 38 1 21 51
M  V30 39 1 22 23
M  V30 40 1 22 24
M  V30 41 1 22 25
M  V30 42 2 26 27
M  V30 43 1 26 32
M  V30 44 1 27 28
M  V30 45 1 27 52
M  V30 46 2 28 29
M  V30 47 1 28 53
M  V30 48 1 29 30
M  V30 49 1 29 31
M  V30 50 2 31 32
M  V30 51 1 31 54
M  V30 52 1 32 33
M  V30 53 1 33 34
M  V30 54 1 33 38
M  V30 55 2 34 35
M  V30 56 1 35 36
M  V30 57 1 35 37
M  V30 58 1 36 55
M  V30 59 1 36 56
M  V30 60 1 36 57
M  V30 61 2 37 38
M  V30 62 1 37 58
M  V30 63 1 38 59
M  V30 END BOND
M  V30 END CTAB
M  END
> <s_m_entry_id>
869

> <s_m_entry_name>
result.1083

> <s_m_Source_Path>
D:\OneDrive - zju.edu.cn\DOC\A-Finished\LCK_VS\Planet\LCK-8617

> <s_m_Source_File>
glide-dock_SP_top1262_2_pv.maegz

> <i_m_Source_File_Index>
869

> <PLANET_affinity>
8.093

> <i_lp_mmshare_version>
54117

> <i_f3d_flags>
0

> <s_epik_input>
W09IXUMoPU8pW0NAQEhdKFtOSDJdKVtDSDJdYzFbY0hdW2NIXWMoW2NIXVtjSF0xKS1jMm5jKFtOSDJdKW5jKFtjSF0yKU9bQ0BASF0oQyhGKShGKUYpYzNbY0hdW2NIXWMoQ2wpW2NIXWMzLW40bmMoW0NIM10pW2NIXVtjSF00

> <s_epik_cmdline>
J2VwaWtfcHl0aG9uJywgJy1waCcsICc3LjAnLCAnLXRuJywgJzgnLCAnLW1hJywgJzUwMCcsICctaW1hZScsICc8aW5maWxlLm1hZT4nLCAnLW9tYWUnLCAnPG91dGZpbGUubWFlPic=

> <r_epik_Ionization_Penalty>
  0.0348

> <r_epik_Ionization_Penalty_Charging>
  0.0030

> <r_epik_Ionization_Penalty_Neutral>
  0.0318

> <r_epik_State_Penalty>
  0.0262

> <r_epik_Charging_Adjusted_Penalty>
0.0292883

> <i_epik_Tot_Q>
0

> <i_epik_Tot_abs_Q>
2

> <s_lp_Force_Field>
S-OPLS

> <r_lp_Energy>
36.0418

> <b_lp_Chiralities_Consistent>
1

> <s_lp_Variant>
N[C@@H](CC1=CC=C(C2=NC(N)=NC(O[C@H](C3=CC=C(Cl)C=C3N4N=C(C)C=C4)C(F)(F)F)=C2)...-1

> <s_i_glide_gridfile>
glide-grid_1

> <i_i_glide_lignum>
1205

> <i_i_glide_rotatable_bonds>
9

> <r_i_docking_score>
-7.635760993014

> <r_i_glide_ligand_efficiency>
-0.200941078763526

> <r_i_glide_ligand_efficiency_sa>
-0.675558964199494

> <r_i_glide_ligand_efficiency_ln>
-1.64649469142467

> <r_i_glide_gscore>
-7.661960993014

> <r_i_glide_lipo>
-3.61949754217941

> <r_i_glide_hbond>
-0.179827870519326

> <r_i_glide_metal>
0

> <r_i_glide_rewards>
-1.43663328044456

> <r_i_glide_evdw>
-43.7400016784668

> <r_i_glide_ecoul>
-4.57451152801514

> <r_i_glide_erotb>
0.484704778966071

> <r_i_glide_esite>
-0.0375302657111692

> <r_i_glide_emodel>
-66.7199556618229

> <r_i_glide_energy>
-48.3145132064819

> <r_i_glide_einternal>
12.1919736862183

> <i_i_glide_confnum>
157

> <i_i_glide_posenum>
64

> <r_i_glide_eff_state_penalty>
0.0262

> <r_lp_tautomer_probability>
1

> <s_m_subgroup_title>
glide-dock_SP_top1262_2_pv

> <s_m_subgroupid>
glide-dock_SP_top1262_2_pv

> <b_m_subgroup_collapsed>
0

$$$$
CN(CC1)CCN1C2=CC=C(N3C=C(C4=CC=NC=C4OCC5CCNCC5)C=N3)C=C2.Cl
                    3D
 Schrodinger Suite 2021-3.
  0  0  0     0  0            999 V3000
M  V30 BEGIN CTAB
M  V30 COUNTS 66 70 0 0 0
M  V30 BEGIN ATOM
M  V30 1 C  35.1399 34.0325 84.0394 0
M  V30 2 N  34.3045 35.2655 83.6334 0 CHG=1
M  V30 3 C  33.3464 34.9356 82.4709 0
M  V30 4 C  32.6039 36.2355 82.0916 0
M  V30 5 N  31.7760 36.7575 83.1924 0
M  V30 6 C  32.6053 36.9820 84.3943 0
M  V30 7 C  33.4687 35.7666 84.8310 0
M  V30 8 C  30.3849 36.6617 83.2282 0
M  V30 9 C  29.7135 35.6438 82.5425 0
M  V30 10 C  28.3274 35.5548 82.5874 0
M  V30 11 C  27.5688 36.4766 83.3227 0
M  V30 12 C  28.2365 37.5100 83.9923 0
M  V30 13 C  29.6276 37.5955 83.9466 0
M  V30 14 N  26.1563 36.3279 83.4306 0
M  V30 15 C  25.2845 36.9384 84.3101 0
M  V30 16 C  23.9981 36.4758 84.0436 0
M  V30 17 C  24.2308 35.5562 83.0038 0
M  V30 18 N  25.4872 35.4726 82.6384 0
M  V30 19 C  22.6735 36.8710 84.6451 0
M  V30 20 C  21.5073 36.3673 84.0440 0
M  V30 21 C  20.2597 36.7565 84.5352 0
M  V30 22 N  20.1107 37.5330 85.6300 0
M  V30 23 C  21.2363 37.9954 86.2234 0
M  V30 24 C  22.5361 37.7532 85.7396 0
M  V30 25 O  23.6612 38.3426 86.2924 0
M  V30 26 C  23.5405 39.4873 87.1480 0
M  V30 27 C  22.8948 40.7417 86.4885 0
M  V30 28 C  22.6899 41.8787 87.5108 0
M  V30 29 C  21.9025 43.0472 86.8860 0
M  V30 30 N  22.6662 43.5562 85.6434 0 CHG=1
M  V30 31 C  22.9951 42.4529 84.6111 0
M  V30 32 C  23.7296 41.2933 85.3149 0
M  V30 33 H  34.4697 33.2616 84.4303 0
M  V30 34 H  35.6695 33.6821 83.1540 0
M  V30 35 H  35.8467 34.3557 84.8065 0
M  V30 36 H  33.9546 34.5633 81.6453 0
M  V30 37 H  32.6695 34.1446 82.8027 0
M  V30 38 H  31.9853 36.0422 81.2159 0
M  V30 39 H  33.3057 37.0092 81.7734 0
M  V30 40 H  33.2310 37.8610 84.2288 0
M  V30 41 H  31.9641 37.2428 85.2372 0
M  V30 42 H  34.1846 36.0449 85.6077 0
M  V30 43 H  32.8825 34.9220 85.1936 0
M  V30 44 H  30.2562 34.8983 81.9804 0
M  V30 45 H  27.8584 34.7379 82.0585 0
M  V30 46 H  27.6987 38.2471 84.5666 0
M  V30 47 H  30.1192 38.4030 84.4718 0
M  V30 48 H  25.6403 37.6544 85.0326 0
M  V30 49 H  23.4817 34.9581 82.5017 0
M  V30 50 H  21.5499 35.7143 83.1866 0
M  V30 51 H  19.3466 36.4169 84.0688 0
M  V30 52 H  21.0552 38.6100 87.0904 0
M  V30 53 H  24.5452 39.7377 87.4885 0
M  V30 54 H  22.9967 39.1951 88.0472 0
M  V30 55 H  21.9111 40.4849 86.0952 0
M  V30 56 H  23.6426 42.2074 87.9297 0
M  V30 57 H  22.1324 41.5016 88.3704 0
M  V30 58 H  21.7951 43.9052 87.5555 0
M  V30 59 H  20.9076 42.7550 86.5443 0
M  V30 60 H  23.5273 43.9959 85.9402 0
M  V30 61 H  23.5988 42.9265 83.8326 0
M  V30 62 H  22.0397 42.1478 84.1778 0
M  V30 63 H  23.9153 40.4931 84.5962 0
M  V30 64 H  24.7230 41.5926 85.6516 0
M  V30 65 H  22.1238 44.2919 85.1867 0
M  V30 66 H  34.9178 36.0135 83.3346 0
M  V30 END ATOM
M  V30 BEGIN BOND
M  V30 1 1 1 2
M  V30 2 1 1 33
M  V30 3 1 1 34
M  V30 4 1 1 35
M  V30 5 1 2 3
M  V30 6 1 2 7
M  V30 7 1 2 66
M  V30 8 1 3 4
M  V30 9 1 3 36
M  V30 10 1 3 37
M  V30 11 1 4 5
M  V30 12 1 4 38
M  V30 13 1 4 39
M  V30 14 1 5 6
M  V30 15 1 5 8
M  V30 16 1 6 7
M  V30 17 1 6 40
M  V30 18 1 6 41
M  V30 19 1 7 42
M  V30 20 1 7 43
M  V30 21 2 8 9
M  V30 22 1 8 13
M  V30 23 1 9 10
M  V30 24 1 9 44
M  V30 25 2 10 11
M  V30 26 1 10 45
M  V30 27 1 11 12
M  V30 28 1 11 14
M  V30 29 2 12 13
M  V30 30 1 12 46
M  V30 31 1 13 47
M  V30 32 1 14 15
M  V30 33 1 14 18
M  V30 34 2 15 16
M  V30 35 1 15 48
M  V30 36 1 16 17
M  V30 37 1 16 19
M  V30 38 2 17 18
M  V30 39 1 17 49
M  V30 40 2 19 20
M  V30 41 1 19 24
M  V30 42 1 20 21
M  V30 43 1 20 50
M  V30 44 2 21 22
M  V30 45 1 21 51
M  V30 46 1 22 23
M  V30 47 2 23 24
M  V30 48 1 23 52
M  V30 49 1 24 25
M  V30 50 1 25 26
M  V30 51 1 26 27
M  V30 52 1 26 53
M  V30 53 1 26 54
M  V30 54 1 27 28
M  V30 55 1 27 32
M  V30 56 1 27 55
M  V30 57 1 28 29
M  V30 58 1 28 56
M  V30 59 1 28 57
M  V30 60 1 29 30
M  V30 61 1 29 58
M  V30 62 1 29 59
M  V30 63 1 30 31
M  V30 64 1 30 60
M  V30 65 1 30 65
M  V30 66 1 31 32
M  V30 67 1 31 61
M  V30 68 1 31 62
M  V30 69 1 32 63
M  V30 70 1 32 64
M  V30 END BOND
M  V30 END CTAB
M  END
> <s_m_entry_id>
870

> <s_m_entry_name>
result.3235

> <s_m_Source_Path>
D:\OneDrive - zju.edu.cn\DOC\A-Finished\LCK_VS\Planet\LCK-8617

> <s_m_Source_File>
glide-dock_SP_top1262_2_pv.maegz

> <i_m_Source_File_Index>
870

> <PLANET_affinity>
7.735

> <i_lp_mmshare_version>
54117

> <i_f3d_flags>
0

> <s_epik_input>
W0NIM11OMVtDSDJdW0NIMl1OKFtDSDJdW0NIMl0xKWMyW2NIXVtjSF1jKFtjSF1bY0hdMiktbjNbY0hdYyhbY0hdbjMpLWM0W2NIXVtjSF1uW2NIXWM0T1tDSDJdW0NIXTVbQ0gyXVtDSDJdW05IXVtDSDJdW0NIMl01

> <s_epik_cmdline>
J2VwaWtfcHl0aG9uJywgJy1waCcsICc3LjAnLCAnLXRuJywgJzgnLCAnLW1hJywgJzUwMCcsICctaW1hZScsICc8aW5maWxlLm1hZT4nLCAnLW9tYWUnLCAnPG91dGZpbGUubWFlPic=

> <r_epik_Ionization_Penalty>
  0.0715

> <r_epik_Ionization_Penalty_Charging>
  0.0652

> <r_epik_Ionization_Penalty_Neutral>
  0.0063

> <r_epik_State_Penalty>
  0.0564

> <r_epik_Charging_Adjusted_Penalty>
0.12159

> <i_epik_Tot_Q>
2

> <i_epik_Tot_abs_Q>
2

> <s_lp_Force_Field>
S-OPLS

> <r_lp_Energy>
70.3776

> <b_lp_Chiralities_Consistent>
1

> <s_lp_Variant>
CN(CC1)CCN1C2=CC=C(N3C=C(C4=CC=NC=C4OCC5CCNCC5)C=N3)C=C2.Cl-1

> <s_i_glide_gridfile>
glide-grid_1

> <i_i_glide_lignum>
1596

> <i_i_glide_rotatable_bonds>
6

> <r_i_docking_score>
-7.63561120865212

> <r_i_glide_ligand_efficiency>
-0.238612850270379

> <r_i_glide_ligand_efficiency_sa>
-0.757548578189505

> <r_i_glide_ligand_efficiency_ln>
-1.70982148851773

> <r_i_glide_gscore>
-7.69201120865212

> <r_i_glide_lipo>
-2.57180360289173

> <r_i_glide_hbond>
-0.0328846276403348

> <r_i_glide_metal>
0

> <r_i_glide_rewards>
-1.90659277733636

> <r_i_glide_evdw>
-38.1993675231934

> <r_i_glide_ecoul>
-12.0291032791138

> <r_i_glide_erotb>
0.632761750821506

> <r_i_glide_esite>
-0.099158083578466

> <r_i_glide_emodel>
-83.6278327935487

> <r_i_glide_energy>
-50.2284708023071

> <r_i_glide_einternal>
1.09590637683868

> <i_i_glide_confnum>
189

> <i_i_glide_posenum>
243

> <r_i_glide_eff_state_penalty>
0.0564

> <r_lp_tautomer_probability>
1

> <s_m_subgroup_title>
glide-dock_SP_top1262_2_pv

> <s_m_subgroupid>
glide-dock_SP_top1262_2_pv

> <b_m_subgroup_collapsed>
0

$$$$
OC1=CC=CC(/C2=C3CCC(/C(C4=CC(O)=CC=C4)=C5C=C/C(N/5)=C(C6=CC(O)=CC=C6)/C(C=C/7...
                    3D
 Schrodinger Suite 2021-3.
  0  0  0     0  0            999 V3000
M  V30 BEGIN CTAB
M  V30 COUNTS 85 93 0 0 0
M  V30 BEGIN ATOM
M  V30 1 O  31.9104 46.2212 85.2437 0
M  V30 2 C  31.3367 45.4902 86.2500 0
M  V30 3 C  31.9491 45.4833 87.5006 0
M  V30 4 C  31.4103 44.7256 88.5373 0
M  V30 5 C  30.2505 43.9816 88.3226 0
M  V30 6 C  29.6067 43.9915 87.0781 0
M  V30 7 C  30.1656 44.7549 86.0432 0
M  V30 8 C  28.3525 43.1950 86.8932 0
M  V30 9 C  27.2084 43.5880 87.6044 0
M  V30 10 C  28.3791 42.0465 86.0561 0
M  V30 11 C  29.3918 41.7139 85.2040 0
M  V30 12 C  29.0923 40.5091 84.5890 0
M  V30 13 C  27.9298 39.9914 85.1107 0
M  V30 14 N  27.4600 41.0136 85.9328 0
M  V30 15 C  27.3990 38.6840 84.8386 0
M  V30 16 C  28.2924 37.6876 84.1283 0
M  V30 17 C  29.6530 37.5745 84.4711 0
M  V30 18 C  30.5267 36.7565 83.7591 0
M  V30 19 O  31.8653 36.7517 84.0435 0
M  V30 20 C  30.0354 35.9355 82.7543 0
M  V30 21 C  28.6822 35.9681 82.4433 0
M  V30 22 C  27.8271 36.8599 83.0951 0
M  V30 23 C  26.0805 38.2985 85.2487 0
M  V30 24 C  25.4534 37.0890 85.0773 0
M  V30 25 C  24.1420 37.1616 85.5423 0
M  V30 26 C  23.9358 38.3827 86.1251 0
M  V30 27 N  25.1264 39.0653 85.9055 0 CHG=1
M  V30 28 C  22.7633 38.8399 86.8006 0
M  V30 29 C  21.5257 37.9778 86.8518 0
M  V30 30 C  20.2763 38.4956 86.4658 0
M  V30 31 C  19.0976 37.7803 86.6879 0
M  V30 32 O  17.8775 38.3265 86.3887 0
M  V30 33 C  19.1572 36.5063 87.2434 0
M  V30 34 C  20.3868 35.9362 87.5505 0
M  V30 35 C  21.5553 36.6724 87.3639 0
M  V30 36 C  22.7232 40.0973 87.4827 0
M  V30 37 C  21.6720 40.5406 88.2457 0
M  V30 38 C  21.9462 41.8038 88.7390 0
M  V30 39 C  23.1930 42.1856 88.3311 0
M  V30 40 N  23.6646 41.1181 87.5844 0
M  V30 41 C  23.7927 43.4342 88.6457 0
M  V30 42 C  25.1029 43.7668 88.2739 0
M  V30 43 N  25.9968 42.9609 87.6316 0
M  V30 44 C  25.7077 45.1321 88.4936 0
M  V30 45 C  27.1669 44.8211 88.4757 0
M  V30 46 C  22.9684 44.4393 89.3812 0
M  V30 47 C  21.8551 45.0108 88.7572 0
M  V30 48 C  21.0063 45.8722 89.4500 0
M  V30 49 O  19.8800 46.3601 88.8437 0
M  V30 50 C  21.2956 46.2138 90.7699 0
M  V30 51 C  22.4168 45.6722 91.3997 0
M  V30 52 C  23.2429 44.7808 90.7117 0
M  V30 53 H  31.6830 45.9565 84.3338 0
M  V30 54 H  32.8519 46.0538 87.6609 0
M  V30 55 H  31.8936 44.7095 89.5027 0
M  V30 56 H  29.8474 43.3919 89.1337 0
M  V30 57 H  29.6970 44.7677 85.0685 0
M  V30 58 H  30.2887 42.2825 84.9941 0
M  V30 59 H  29.7418 40.0618 83.8502 0
M  V30 60 H  26.6198 40.9843 86.4860 0
M  V30 61 H  30.0518 38.1639 85.2823 0
M  V30 62 H  32.1124 37.3218 84.7739 0
M  V30 63 H  30.6997 35.2770 82.2138 0
M  V30 64 H  28.3195 35.3391 81.6461 0
M  V30 65 H  26.8025 36.9205 82.7605 0
M  V30 66 H  25.8617 36.1954 84.6326 0
M  V30 67 H  23.4418 36.3420 85.4767 0
M  V30 68 H  20.2177 39.4890 86.0443 0
M  V30 69 H  17.8350 39.2868 86.4397 0
M  V30 70 H  18.2460 35.9550 87.4244 0
M  V30 71 H  20.4292 34.9384 87.9636 0
M  V30 72 H  22.4828 36.2211 87.6639 0
M  V30 73 H  20.7487 40.0214 88.4427 0
M  V30 74 H  21.2625 42.3755 89.3502 0
M  V30 75 H  24.5724 41.1334 87.1521 0
M  V30 76 H  25.4369 45.8054 87.6791 0
M  V30 77 H  25.4314 45.6196 89.4271 0
M  V30 78 H  27.5359 44.6032 89.4791 0
M  V30 79 H  27.7397 45.6645 88.0868 0
M  V30 80 H  21.6366 44.7554 87.7304 0
M  V30 81 H  19.6829 45.9567 87.9745 0
M  V30 82 H  20.6429 46.8860 91.3070 0
M  V30 83 H  22.6343 45.9289 92.4258 0
M  V30 84 H  24.0911 44.3438 91.2191 0
M  V30 85 H  25.2734 40.0236 86.1669 0
M  V30 END ATOM
M  V30 BEGIN BOND
M  V30 1 1 1 2
M  V30 2 1 1 53
M  V30 3 2 2 3
M  V30 4 1 2 7
M  V30 5 1 3 4
M  V30 6 1 3 54
M  V30 7 2 4 5
M  V30 8 1 4 55
M  V30 9 1 5 6
M  V30 10 1 5 56
M  V30 11 2 6 7
M  V30 12 1 6 8
M  V30 13 1 7 57
M  V30 14 2 8 9
M  V30 15 1 8 10
M  V30 16 1 9 45
M  V30 17 1 9 43
M  V30 18 2 10 11
M  V30 19 1 10 14
M  V30 20 1 11 12
M  V30 21 1 11 58
M  V30 22 2 12 13
M  V30 23 1 12 59
M  V30 24 1 13 14
M  V30 25 1 13 15
M  V30 26 1 14 60
M  V30 27 1 15 16
M  V30 28 2 15 23
M  V30 29 2 16 17
M  V30 30 1 16 22
M  V30 31 1 17 18
M  V30 32 1 17 61
M  V30 33 1 18 19
M  V30 34 2 18 20
M  V30 35 1 19 62
M  V30 36 1 20 21
M  V30 37 1 20 63
M  V30 38 2 21 22
M  V30 39 1 21 64
M  V30 40 1 22 65
M  V30 41 1 23 24
M  V30 42 1 23 27
M  V30 43 2 24 25
M  V30 44 1 24 66
M  V30 45 1 25 26
M  V30 46 1 25 67
M  V30 47 2 26 27
M  V30 48 1 26 28
M  V30 49 1 27 85
M  V30 50 1 28 29
M  V30 51 2 28 36
M  V30 52 2 29 30
M  V30 53 1 29 35
M  V30 54 1 30 31
M  V30 55 1 30 68
M  V30 56 1 31 32
M  V30 57 2 31 33
M  V30 58 1 32 69
M  V30 59 1 33 34
M  V30 60 1 33 70
M  V30 61 2 34 35
M  V30 62 1 34 71
M  V30 63 1 35 72
M  V30 64 1 36 37
M  V30 65 1 36 40
M  V30 66 2 37 38
M  V30 67 1 37 73
M  V30 68 1 38 39
M  V30 69 1 38 74
M  V30 70 1 39 40
M  V30 71 2 39 41
M  V30 72 1 40 75
M  V30 73 1 41 42
M  V30 74 1 41 46
M  V30 75 2 42 43
M  V30 76 1 42 44
M  V30 77 1 44 45
M  V30 78 1 44 76
M  V30 79 1 44 77
M  V30 80 1 45 78
M  V30 81 1 45 79
M  V30 82 2 46 47
M  V30 83 1 46 52
M  V30 84 1 47 48
M  V30 85 1 47 80
M  V30 86 1 48 49
M  V30 87 2 48 50
M  V30 88 1 49 81
M  V30 89 1 50 51
M  V30 90 1 50 82
M  V30 91 2 51 52
M  V30 92 1 51 83
M  V30 93 1 52 84
M  V30 END BOND
M  V30 END CTAB
M  END
> <s_m_entry_id>
873

> <s_m_entry_name>
result.7476

> <s_m_Source_Path>
D:\OneDrive - zju.edu.cn\DOC\A-Finished\LCK_VS\Planet\LCK-8617

> <s_m_Source_File>
glide-dock_SP_top1262_2_pv.maegz

> <i_m_Source_File_Index>
873

> <PLANET_affinity>
12.169

> <i_lp_mmshare_version>
54117

> <i_f3d_flags>
0

> <s_epik_input>
W09IXWMxW2NIXVtjSF1bY0hdYyhbY0hdMSktYyhjMjMpYzRbY0hdW2NIXWMoW25IXTQpYygtYzVbY0hdYyhbT0hdKVtjSF1bY0hdW2NIXTUpYzZbY0hdW2NIXWMobjYpYygtYzdbY0hdYyhbT0hdKVtjSF1bY0hdW2NIXTcpYzhbY0hdW2NIXWMoW25IXTgpYyhjKG4yKVtDSDJdW0NIMl0zKS1jOVtjSF1jKFtPSF0pW2NIXVtjSF1bY0hdOQ==

> <s_epik_cmdline>
J2VwaWtfcHl0aG9uJywgJy1waCcsICc3LjAnLCAnLXRuJywgJzgnLCAnLW1hJywgJzUwMCcsICctaW1hZScsICc8aW5maWxlLm1hZT4nLCAnLW9tYWUnLCAnPG91dGZpbGUubWFlPic=

> <r_epik_Ionization_Penalty>
  0.0045

> <r_epik_Ionization_Penalty_Charging>
  0.0000

> <r_epik_Ionization_Penalty_Neutral>
  0.0045

> <r_epik_State_Penalty>
  0.0000

> <r_epik_Charging_Adjusted_Penalty>
3.61191e-11

> <i_epik_Tot_Q>
1

> <i_epik_Tot_abs_Q>
1

> <s_lp_Force_Field>
S-OPLS

> <r_lp_Energy>
68.8681

> <b_lp_Chiralities_Consistent>
1

> <s_lp_Variant>
OC1=CC=CC(/C2=C3CCC(/C(C4=CC(O)=CC=C4)=C5C=C/C(N/5)=C(C6=CC(O)=CC=C6)/C(C=C/7...-1

> <s_i_glide_gridfile>
glide-grid_1

> <i_i_glide_lignum>
119

> <i_i_glide_rotatable_bonds>
8

> <r_i_docking_score>
-7.63277252123128

> <r_i_glide_ligand_efficiency>
-0.146784086946755

> <r_i_glide_ligand_efficiency_sa>
-0.547873241450404

> <r_i_glide_ligand_efficiency_ln>
-1.54158691332168

> <r_i_glide_gscore>
-7.63277252123128

> <r_i_glide_lipo>
-3.1942980450092

> <r_i_glide_hbond>
-0.304

> <r_i_glide_metal>
0

> <r_i_glide_rewards>
0

> <r_i_glide_evdw>
-40.2774238586426

> <r_i_glide_ecoul>
-14.2482461929321

> <r_i_glide_erotb>
0.0167720231796778

> <r_i_glide_esite>
-0.000138377529811477

> <r_i_glide_emodel>
-82.530193032175

> <r_i_glide_energy>
-54.5256700515747

> <r_i_glide_einternal>
11.8952760696411

> <i_i_glide_confnum>
238

> <i_i_glide_posenum>
379

> <r_i_glide_eff_state_penalty>
0

> <r_lp_tautomer_probability>
1

> <s_m_subgroup_title>
glide-dock_SP_top1262_2_pv

> <s_m_subgroupid>
glide-dock_SP_top1262_2_pv

> <b_m_subgroup_collapsed>
0

$$$$
C=CC(NC1=CC(NC2=NC=C(Cl)C(C3=CNC4=C3C=CC=C4)=N2)=C(OC)C=C1N(CCN(C)C)C)=O
                    3D
 Schrodinger Suite 2021-3.
  0  0  0     0  0            999 V3000
M  V30 BEGIN CTAB
M  V30 COUNTS 68 71 0 0 0
M  V30 BEGIN ATOM
M  V30 1 C  35.8633 37.9516 87.6089 0
M  V30 2 N  34.4881 37.6738 86.9631 0 CHG=1
M  V30 3 C  33.9612 36.2835 87.3900 0
M  V30 4 C  33.4993 38.8398 87.2230 0
M  V30 5 C  32.1741 38.6706 86.4436 0
M  V30 6 N  32.2003 38.8679 84.9841 0
M  V30 7 C  33.4576 38.9179 84.2360 0
M  V30 8 C  31.0956 38.2611 84.3396 0
M  V30 9 C  31.2714 37.0607 83.6445 0
M  V30 10 C  30.1910 36.3571 83.0870 0
M  V30 11 O  30.3595 35.1847 82.3699 0
M  V30 12 C  31.6833 34.7580 82.0435 0
M  V30 13 C  28.8862 36.8429 83.2803 0
M  V30 14 C  28.7166 38.0901 83.8952 0
M  V30 15 C  29.8027 38.8094 84.4048 0
M  V30 16 N  29.5896 40.0730 84.9850 0
M  V30 17 C  28.9577 41.1034 84.3865 0
M  V30 18 O  28.4819 41.0515 83.2473 0
M  V30 19 C  28.8808 42.2748 85.2274 0
M  V30 20 C  28.3147 43.4274 84.8201 0
M  V30 21 N  27.7901 36.0664 82.8435 0
M  V30 22 C  26.4213 36.0780 83.1627 0
M  V30 23 N  25.6424 35.1785 82.5079 0
M  V30 24 C  24.3242 35.1566 82.8437 0
M  V30 25 C  23.7750 36.0002 83.8116 0
M  V30 26 Cl 22.0874 35.8926 84.1741 0
M  V30 27 C  24.6463 36.9155 84.4300 0
M  V30 28 N  25.9670 36.9310 84.1153 0
M  V30 29 C  24.2631 37.9585 85.4382 0
M  V30 30 C  23.0475 38.6185 85.5339 0
M  V30 31 N  23.0722 39.5250 86.5613 0
M  V30 32 C  25.0841 38.5143 86.4953 0
M  V30 33 C  24.3002 39.4960 87.1809 0
M  V30 34 C  26.4024 38.2969 86.9383 0
M  V30 35 C  26.8948 39.0333 88.0143 0
M  V30 36 C  26.1046 39.9791 88.6595 0
M  V30 37 C  24.7928 40.2357 88.2617 0
M  V30 38 H  35.7341 37.9443 88.6919 0
M  V30 39 H  36.2142 38.9222 87.2548 0
M  V30 40 H  36.5405 37.1601 87.2866 0
M  V30 41 H  33.6835 36.3324 88.4436 0
M  V30 42 H  33.1096 36.0315 86.7596 0
M  V30 43 H  34.7602 35.5575 87.2313 0
M  V30 44 H  33.3323 38.8499 88.3022 0
M  V30 45 H  34.0186 39.7558 86.9343 0
M  V30 46 H  31.7215 37.7083 86.6835 0
M  V30 47 H  31.4758 39.4081 86.8388 0
M  V30 48 H  33.9689 37.9561 84.2359 0
M  V30 49 H  33.2674 39.1872 83.1959 0
M  V30 50 H  34.1255 39.6785 84.6391 0
M  V30 51 H  32.2670 36.6543 83.5742 0
M  V30 52 H  31.6535 33.9508 81.3159 0
M  V30 53 H  32.2653 35.5562 81.5803 0
M  V30 54 H  32.2099 34.3932 82.9263 0
M  V30 55 H  27.7406 38.5397 83.9734 0
M  V30 56 H  30.0998 40.2713 85.8307 0
M  V30 57 H  29.3048 42.2053 86.2192 0
M  V30 58 H  28.2799 44.2850 85.4755 0
M  V30 59 H  27.8811 43.5451 83.8370 0
M  V30 60 H  28.0495 35.3258 82.2045 0
M  V30 61 H  23.6960 34.4444 82.3266 0
M  V30 62 H  22.1545 38.5326 84.9310 0
M  V30 63 H  22.2868 40.1202 86.7838 0
M  V30 64 H  27.0337 37.5689 86.4515 0
M  V30 65 H  27.9090 38.8706 88.3523 0
M  V30 66 H  26.5218 40.5331 89.4882 0
M  V30 67 H  24.1926 40.9782 88.7673 0
M  V30 68 H  34.6314 37.6391 85.9607 0
M  V30 END ATOM
M  V30 BEGIN BOND
M  V30 1 1 1 2
M  V30 2 1 1 38
M  V30 3 1 1 39
M  V30 4 1 1 40
M  V30 5 1 2 3
M  V30 6 1 2 4
M  V30 7 1 2 68
M  V30 8 1 3 41
M  V30 9 1 3 42
M  V30 10 1 3 43
M  V30 11 1 4 5
M  V30 12 1 4 44
M  V30 13 1 4 45
M  V30 14 1 5 6
M  V30 15 1 5 46
M  V30 16 1 5 47
M  V30 17 1 6 7
M  V30 18 1 6 8
M  V30 19 1 7 48
M  V30 20 1 7 49
M  V30 21 1 7 50
M  V30 22 2 8 9
M  V30 23 1 8 15
M  V30 24 1 9 10
M  V30 25 1 9 51
M  V30 26 1 10 11
M  V30 27 2 10 13
M  V30 28 1 11 12
M  V30 29 1 12 52
M  V30 30 1 12 53
M  V30 31 1 12 54
M  V30 32 1 13 14
M  V30 33 1 13 21
M  V30 34 2 14 15
M  V30 35 1 14 55
M  V30 36 1 15 16
M  V30 37 1 16 17
M  V30 38 1 16 56
M  V30 39 2 17 18
M  V30 40 1 17 19
M  V30 41 2 19 20
M  V30 42 1 19 57
M  V30 43 1 20 58
M  V30 44 1 20 59
M  V30 45 1 21 22
M  V30 46 1 21 60
M  V30 47 2 22 23
M  V30 48 1 22 28
M  V30 49 1 23 24
M  V30 50 2 24 25
M  V30 51 1 24 61
M  V30 52 1 25 26
M  V30 53 1 25 27
M  V30 54 2 27 28
M  V30 55 1 27 29
M  V30 56 2 29 30
M  V30 57 1 29 32
M  V30 58 1 30 31
M  V30 59 1 30 62
M  V30 60 1 31 33
M  V30 61 1 31 63
M  V30 62 2 32 33
M  V30 63 1 32 34
M  V30 64 1 33 37
M  V30 65 2 34 35
M  V30 66 1 34 64
M  V30 67 1 35 36
M  V30 68 1 35 65
M  V30 69 2 36 37
M  V30 70 1 36 66
M  V30 71 1 37 67
M  V30 END BOND
M  V30 END CTAB
M  END
> <s_m_entry_id>
874

> <s_m_entry_name>
result.469

> <s_m_Source_Path>
D:\OneDrive - zju.edu.cn\DOC\A-Finished\LCK_VS\Planet\LCK-8617

> <s_m_Source_File>
glide-dock_SP_top1262_2_pv.maegz

> <i_m_Source_File_Index>
874

> <PLANET_affinity>
9.255

> <i_lp_mmshare_version>
54117

> <i_f3d_flags>
0

> <s_epik_input>
W0NIM11OKFtDSDNdKVtDSDJdW0NIMl1OKFtDSDNdKWMxW2NIXWMoT1tDSDNdKWMoW2NIXWMxW05IXUMoPU8pW0NIXT1bQ0gyXSlbTkhdYzJuW2NIXWMoQ2wpYyhuMiktYzNbY0hdW25IXWMoYzM0KVtjSF1bY0hdW2NIXVtjSF00

> <s_epik_cmdline>
J2VwaWtfcHl0aG9uJywgJy1waCcsICc3LjAnLCAnLXRuJywgJzgnLCAnLW1hJywgJzUwMCcsICctaW1hZScsICc8aW5maWxlLm1hZT4nLCAnLW9tYWUnLCAnPG91dGZpbGUubWFlPic=

> <r_epik_Ionization_Penalty>
  0.0133

> <r_epik_Ionization_Penalty_Charging>
  0.0038

> <r_epik_Ionization_Penalty_Neutral>
  0.0095

> <r_epik_State_Penalty>
  0.0077

> <r_epik_Charging_Adjusted_Penalty>
0.0115158

> <i_epik_Tot_Q>
1

> <i_epik_Tot_abs_Q>
1

> <s_lp_Force_Field>
S-OPLS

> <r_lp_Energy>
87.174

> <b_lp_Chiralities_Consistent>
1

> <s_lp_Variant>
C=CC(NC1=CC(NC2=NC=C(Cl)C(C3=CNC4=C3C=CC=C4)=N2)=C(OC)C=C1N(CCN(C)C)C)=O-1

> <s_i_glide_gridfile>
glide-grid_1

> <i_i_glide_lignum>
430

> <i_i_glide_rotatable_bonds>
11

> <r_i_docking_score>
-7.63230093112292

> <r_i_glide_ligand_efficiency>
-0.206278403543863

> <r_i_glide_ligand_efficiency_sa>
-0.687365402984161

> <r_i_glide_ligand_efficiency_ln>
-1.65526714544047

> <r_i_glide_gscore>
-7.64000093112292

> <r_i_glide_lipo>
-2.58478119022703

> <r_i_glide_hbond>
-0.547845433377172

> <r_i_glide_metal>
0

> <r_i_glide_rewards>
-1.2706285374827

> <r_i_glide_evdw>
-45.9394454956055

> <r_i_glide_ecoul>
-10.5448331832886

> <r_i_glide_erotb>
0.681440608939592

> <r_i_glide_esite>
-0.0394891267020514

> <r_i_glide_emodel>
-87.9896782935813

> <r_i_glide_energy>
-56.484278678894

> <r_i_glide_einternal>
4.4922251701355

> <i_i_glide_confnum>
11

> <i_i_glide_posenum>
274

> <r_i_glide_eff_state_penalty>
0.0077

> <r_lp_tautomer_probability>
1

> <s_m_subgroup_title>
glide-dock_SP_top1262_2_pv

> <s_m_subgroupid>
glide-dock_SP_top1262_2_pv

> <b_m_subgroup_collapsed>
0

$$$$
O=S(C1=CC=C(NC2=NC(C3=CN=C(N3C(C)C)C)=CC=N2)C=C1)(C)=O
                    3D
 Schrodinger Suite 2021-3.
  0  0  0     0  0            999 V3000
M  V30 BEGIN CTAB
M  V30 COUNTS 47 49 0 0 0
M  V30 BEGIN ATOM
M  V30 1 O  33.6289 38.0399 83.5787 0
M  V30 2 S  32.5761 38.4743 84.5025 0
M  V30 3 O  32.2909 39.8985 84.6991 0
M  V30 4 C  32.9116 37.7069 86.1832 0
M  V30 5 C  31.0498 37.6912 83.9989 0
M  V30 6 C  31.0763 36.6075 83.1207 0
M  V30 7 C  29.8838 35.9972 82.7459 0
M  V30 8 C  28.6661 36.4617 83.2451 0
M  V30 9 C  28.6441 37.5689 84.1003 0
M  V30 10 C  29.8349 38.1842 84.4753 0
M  V30 11 N  27.5146 35.7738 82.8395 0
M  V30 12 C  26.1534 35.8452 83.1507 0
M  V30 13 N  25.6949 36.5732 84.2033 0
M  V30 14 C  24.3434 36.6266 84.3851 0
M  V30 15 C  23.4692 35.9567 83.5171 0
M  V30 16 C  24.0330 35.2318 82.4742 0
M  V30 17 N  25.3705 35.1566 82.2914 0
M  V30 18 C  23.8892 37.6043 85.4261 0
M  V30 19 C  24.5709 38.7241 85.8910 0
M  V30 20 N  23.8579 39.4587 86.7118 0
M  V30 21 C  22.7135 38.8332 86.8174 0
M  V30 22 C  21.5693 39.4284 87.6118 0
M  V30 23 N  22.6827 37.6334 86.1172 0
M  V30 24 C  21.5945 36.6325 86.0692 0
M  V30 25 C  20.4022 37.1493 85.2397 0
M  V30 26 C  21.1973 36.1107 87.4625 0
M  V30 27 H  33.8400 38.1222 86.5711 0
M  V30 28 H  32.0848 37.9540 86.8476 0
M  V30 29 H  33.0042 36.6279 86.0663 0
M  V30 30 H  32.0126 36.2303 82.7338 0
M  V30 31 H  29.9178 35.1547 82.0696 0
M  V30 32 H  27.7199 37.9655 84.4865 0
M  V30 33 H  29.8134 39.0350 85.1425 0
M  V30 34 H  27.6841 35.1521 82.0616 0
M  V30 35 H  22.3985 36.0563 83.5616 0
M  V30 36 H  23.4067 34.7566 81.7380 0
M  V30 37 H  25.5626 39.0298 85.5907 0
M  V30 38 H  21.8306 40.3976 88.0397 0
M  V30 39 H  21.2831 38.7984 88.4436 0
M  V30 40 H  20.6845 39.5995 87.0008 0
M  V30 41 H  21.9936 35.7432 85.5899 0
M  V30 42 H  19.6821 36.3551 85.0526 0
M  V30 43 H  19.8641 37.9466 85.7492 0
M  V30 44 H  20.7202 37.5370 84.2708 0
M  V30 45 H  20.6015 35.2005 87.3747 0
M  V30 46 H  22.0812 35.8569 88.0475 0
M  V30 47 H  20.5930 36.8160 88.0281 0
M  V30 END ATOM
M  V30 BEGIN BOND
M  V30 1 2 1 2
M  V30 2 2 2 3
M  V30 3 1 2 4
M  V30 4 1 2 5
M  V30 5 1 4 27
M  V30 6 1 4 28
M  V30 7 1 4 29
M  V30 8 2 5 6
M  V30 9 1 5 10
M  V30 10 1 6 7
M  V30 11 1 6 30
M  V30 12 2 7 8
M  V30 13 1 7 31
M  V30 14 1 8 9
M  V30 15 1 8 11
M  V30 16 2 9 10
M  V30 17 1 9 32
M  V30 18 1 10 33
M  V30 19 1 11 12
M  V30 20 1 11 34
M  V30 21 2 12 13
M  V30 22 1 12 17
M  V30 23 1 13 14
M  V30 24 2 14 15
M  V30 25 1 14 18
M  V30 26 1 15 16
M  V30 27 1 15 35
M  V30 28 2 16 17
M  V30 29 1 16 36
M  V30 30 2 18 19
M  V30 31 1 18 23
M  V30 32 1 19 20
M  V30 33 1 19 37
M  V30 34 2 20 21
M  V30 35 1 21 22
M  V30 36 1 21 23
M  V30 37 1 22 38
M  V30 38 1 22 39
M  V30 39 1 22 40
M  V30 40 1 23 24
M  V30 41 1 24 25
M  V30 42 1 24 26
M  V30 43 1 24 41
M  V30 44 1 25 42
M  V30 45 1 25 43
M  V30 46 1 25 44
M  V30 47 1 26 45
M  V30 48 1 26 46
M  V30 49 1 26 47
M  V30 END BOND
M  V30 END CTAB
M  END
> <s_m_entry_id>
876

> <s_m_entry_name>
result.7712

> <s_m_Source_Path>
D:\OneDrive - zju.edu.cn\DOC\A-Finished\LCK_VS\Planet\LCK-8617

> <s_m_Source_File>
glide-dock_SP_top1262_2_pv.maegz

> <i_m_Source_File_Index>
876

> <PLANET_affinity>
7.4

> <i_lp_mmshare_version>
54117

> <i_f3d_flags>
0

> <s_epik_input>
Tz1TKD1PKShbQ0gzXSljMVtjSF1bY0hdYyhbY0hdW2NIXTEpW05IXWMybmMoW2NIXVtjSF1uMiktYzNbY0hdbmMoW0NIM10pbjNbQ0hdKFtDSDNdKVtDSDNd

> <s_epik_cmdline>
J2VwaWtfcHl0aG9uJywgJy1waCcsICc3LjAnLCAnLXRuJywgJzgnLCAnLW1hJywgJzUwMCcsICctaW1hZScsICc8aW5maWxlLm1hZT4nLCAnLW9tYWUnLCAnPG91dGZpbGUubWFlPic=

> <r_epik_Ionization_Penalty>
  0.2439

> <r_epik_Ionization_Penalty_Charging>
  0.2438

> <r_epik_Ionization_Penalty_Neutral>
  0.0001

> <r_epik_State_Penalty>
  0.2349

> <r_epik_Charging_Adjusted_Penalty>
0.478712

> <i_epik_Tot_Q>
0

> <i_epik_Tot_abs_Q>
0

> <s_lp_Force_Field>
S-OPLS

> <r_lp_Energy>
22.7001

> <b_lp_Chiralities_Consistent>
1

> <s_lp_Variant>
O=S(C1=CC=C(NC2=NC(C3=CN=C(N3C(C)C)C)=CC=N2)C=C1)(C)=O-1

> <s_i_glide_gridfile>
glide-grid_1

> <i_i_glide_lignum>
2095

> <i_i_glide_rotatable_bonds>
5

> <r_i_docking_score>
-7.63195453223015

> <r_i_glide_ligand_efficiency>
-0.293536712778083

> <r_i_glide_ligand_efficiency_sa>
-0.869601356593878

> <r_i_glide_ligand_efficiency_ln>
-1.79233947940887

> <r_i_glide_gscore>
-7.86685453223015

> <r_i_glide_lipo>
-2.79379439726129

> <r_i_glide_hbond>
-0.42490048007516

> <r_i_glide_metal>
0

> <r_i_glide_rewards>
-2.56751734889734

> <r_i_glide_evdw>
-36.8784103393555

> <r_i_glide_ecoul>
-3.44638514518738

> <r_i_glide_erotb>
0.293787562525171

> <r_i_glide_esite>
-0.0135515797756499

> <r_i_glide_emodel>
-58.8157275465534

> <r_i_glide_energy>
-40.3247954845428

> <r_i_glide_einternal>
4.5248384475708

> <i_i_glide_confnum>
15

> <i_i_glide_posenum>
4

> <r_i_glide_eff_state_penalty>
0.2349

> <r_lp_tautomer_probability>
1

> <s_m_subgroup_title>
glide-dock_SP_top1262_2_pv

> <s_m_subgroupid>
glide-dock_SP_top1262_2_pv

> <b_m_subgroup_collapsed>
0

$$$$
O[C@](C[C@@H]1C[C@H]2C3)(C2)C[C@@H]3[C@H]1NC4=C5C(NC=C5)=NC=C4C(N)=O
                    3D
 Schrodinger Suite 2021-3.
  0  0  0     0  0            999 V3000
M  V30 BEGIN CTAB
M  V30 COUNTS 46 50 0 0 0
M  V30 BEGIN ATOM
M  V30 1 O  18.5549 39.1565 84.8242 0
M  V30 2 C  19.6680 38.4767 85.3639 0 CFG=2
M  V30 3 C  20.0550 37.2476 84.4982 0
M  V30 4 C  21.2706 36.4853 85.0966 0 CFG=2
M  V30 5 C  20.9091 36.0318 86.5391 0
M  V30 6 C  20.5463 37.2367 87.4413 0 CFG=2
M  V30 7 C  19.3471 37.9875 86.8007 0
M  V30 8 C  21.7605 38.2032 87.4717 0
M  V30 9 C  22.1438 38.6948 86.0470 0 CFG=2
M  V30 10 C  20.9071 39.4154 85.4386 0
M  V30 11 C  22.4764 37.4704 85.1373 0 CFG=1
M  V30 12 N  23.6727 36.7557 85.5932 0
M  V30 13 C  24.9339 37.1529 85.1129 0
M  V30 14 C  25.5296 36.6260 83.9337 0
M  V30 15 C  24.9128 35.5568 83.0569 0
M  V30 16 O  25.6128 34.7567 82.4433 0
M  V30 17 N  23.5916 35.5328 82.9201 0
M  V30 18 C  26.8161 37.0681 83.5918 0
M  V30 19 N  27.5665 37.9520 84.2954 0
M  V30 20 C  26.9980 38.3899 85.4166 0
M  V30 21 C  25.7025 38.0451 85.8947 0
M  V30 22 N  27.5685 39.2485 86.3273 0
M  V30 23 C  26.6961 39.4695 87.3639 0
M  V30 24 C  25.5345 38.7570 87.1365 0
M  V30 25 H  18.0439 39.5143 85.5584 0
M  V30 26 H  20.2780 37.5678 83.4789 0
M  V30 27 H  19.1989 36.5773 84.4075 0
M  V30 28 H  21.5039 35.6124 84.4874 0
M  V30 29 H  20.0761 35.3289 86.5090 0
M  V30 30 H  21.7315 35.4647 86.9817 0
M  V30 31 H  20.2890 36.8915 88.4416 0
M  V30 32 H  18.4763 37.3288 86.7842 0
M  V30 33 H  19.0582 38.8282 87.4331 0
M  V30 34 H  21.5402 39.0598 88.1099 0
M  V30 35 H  22.6049 37.7082 87.9506 0
M  V30 36 H  22.9830 39.3879 86.0875 0
M  V30 37 H  20.6677 40.3041 86.0261 0
M  V30 38 H  21.1500 39.7903 84.4416 0
M  V30 39 H  22.6727 37.8270 84.1226 0
M  V30 40 H  23.6466 36.5710 86.5850 0
M  V30 41 H  23.0289 36.1046 83.5279 0
M  V30 42 H  23.1574 34.8443 82.3219 0
M  V30 43 H  27.3097 36.6816 82.7097 0
M  V30 44 H  28.4871 39.6681 86.2798 0
M  V30 45 H  26.9793 40.1265 88.1766 0
M  V30 46 H  24.6741 38.7581 87.7900 0
M  V30 END ATOM
M  V30 BEGIN BOND
M  V30 1 1 1 2
M  V30 2 1 1 25
M  V30 3 1 2 3
M  V30 4 1 2 7
M  V30 5 1 2 10
M  V30 6 1 3 4
M  V30 7 1 3 26
M  V30 8 1 3 27
M  V30 9 1 4 5
M  V30 10 1 4 11
M  V30 11 1 4 28
M  V30 12 1 5 6
M  V30 13 1 5 29
M  V30 14 1 5 30
M  V30 15 1 6 7
M  V30 16 1 6 8
M  V30 17 1 6 31
M  V30 18 1 7 32
M  V30 19 1 7 33
M  V30 20 1 8 9
M  V30 21 1 8 34
M  V30 22 1 8 35
M  V30 23 1 9 10
M  V30 24 1 9 11
M  V30 25 1 9 36
M  V30 26 1 10 37
M  V30 27 1 10 38
M  V30 28 1 11 12
M  V30 29 1 11 39
M  V30 30 1 12 13
M  V30 31 1 12 40
M  V30 32 1 13 14
M  V30 33 2 13 21
M  V30 34 1 14 15
M  V30 35 2 14 18
M  V30 36 2 15 16
M  V30 37 1 15 17
M  V30 38 1 17 41
M  V30 39 1 17 42
M  V30 40 1 18 19
M  V30 41 1 18 43
M  V30 42 2 19 20
M  V30 43 1 20 21
M  V30 44 1 20 22
M  V30 45 1 21 24
M  V30 46 1 22 23
M  V30 47 1 22 44
M  V30 48 2 23 24
M  V30 49 1 23 45
M  V30 50 1 24 46
M  V30 END BOND
M  V30 END CTAB
M  END
> <s_m_entry_id>
878

> <s_m_entry_name>
result.3930

> <s_m_Source_Path>
D:\OneDrive - zju.edu.cn\DOC\A-Finished\LCK_VS\Planet\LCK-8617

> <s_m_Source_File>
glide-dock_SP_top1262_2_pv.maegz

> <i_m_Source_File_Index>
878

> <PLANET_affinity>
8.09

> <i_lp_mmshare_version>
54117

> <i_f3d_flags>
0

> <s_epik_input>
W09IXVtDQF0xMltDSDJdW0NAQEhdM1tDSDJdW0NASF0oW0NIMl0xKVtDSDJdW0NASF0oW0NIMl0yKVtDQEhdM1tOSF1jKGMoW2NIXW40KUMoPU8pW05IMl0pYyhjNDUpW2NIXVtjSF1bbkhdNQ==

> <s_epik_cmdline>
J2VwaWtfcHl0aG9uJywgJy1waCcsICc3LjAnLCAnLXRuJywgJzgnLCAnLW1hJywgJzUwMCcsICctaW1hZScsICc8aW5maWxlLm1hZT4nLCAnLW9tYWUnLCAnPG91dGZpbGUubWFlPic=

> <r_epik_Ionization_Penalty>
  0.0121

> <r_epik_Ionization_Penalty_Charging>
  0.0000

> <r_epik_Ionization_Penalty_Neutral>
  0.0121

> <r_epik_State_Penalty>
  0.0094

> <r_epik_Charging_Adjusted_Penalty>
0.00936053

> <i_epik_Tot_Q>
0

> <i_epik_Tot_abs_Q>
0

> <s_lp_Force_Field>
S-OPLS

> <r_lp_Energy>
16.7995

> <b_lp_Chiralities_Consistent>
1

> <s_lp_Variant>
O[C@](C[C@@H]1C[C@H]2C3)(C2)C[C@@H]3[C@H]1NC4=C5C(NC=C5)=NC=C4C(N)=O-1

> <s_i_glide_gridfile>
glide-grid_1

> <i_i_glide_lignum>
1210

> <i_i_glide_rotatable_bonds>
4

> <r_i_docking_score>
-7.62862642460059

> <r_i_glide_ligand_efficiency>
-0.317859434358358

> <r_i_glide_ligand_efficiency_sa>
-0.916865264271713

> <r_i_glide_ligand_efficiency_ln>
-1.82588035826367

> <r_i_glide_gscore>
-7.63802642460059

> <r_i_glide_lipo>
-2.73620334172513

> <r_i_glide_hbond>
-0.620976051020668

> <r_i_glide_metal>
0

> <r_i_glide_rewards>
-1.81208580400903

> <r_i_glide_evdw>
-39.6903953552246

> <r_i_glide_ecoul>
-5.57549858093262

> <r_i_glide_erotb>
0.352083327055362

> <r_i_glide_esite>
0

> <r_i_glide_emodel>
-61.2428508298422

> <r_i_glide_energy>
-45.2658939361572

> <r_i_glide_einternal>
9.8096284866333

> <i_i_glide_confnum>
4

> <i_i_glide_posenum>
382

> <r_i_glide_eff_state_penalty>
0.0094

> <s_m_subgroup_title>
glide-dock_SP_top1262_2_pv

> <s_m_subgroupid>
glide-dock_SP_top1262_2_pv

> <b_m_subgroup_collapsed>
0

$$$$
CNC1=NC(C)=C(C2=C(F)C=NC(NC3=CC(S(=O)(N)=O)=CC=C3)=N2)S1
                    3D
 Schrodinger Suite 2021-3.
  0  0  0     0  0            999 V3000
M  V30 BEGIN CTAB
M  V30 COUNTS 41 43 0 0 0
M  V30 BEGIN ATOM
M  V30 1 C  24.8073 40.9441 89.4878 0
M  V30 2 N  25.5475 39.9573 88.7179 0
M  V30 3 C  25.0596 39.2809 87.6292 0
M  V30 4 N  23.8388 39.3363 87.1650 0
M  V30 5 C  23.6668 38.5860 86.0898 0
M  V30 6 C  22.2950 38.6965 85.4580 0
M  V30 7 C  24.7805 37.8299 85.6779 0
M  V30 8 S  26.1126 38.2441 86.7436 0
M  V30 9 C  24.9780 36.8566 84.5467 0
M  V30 10 C  23.9619 36.0368 84.0289 0
M  V30 11 F  22.7119 36.0060 84.5438 0
M  V30 12 C  24.2911 35.2088 82.9553 0
M  V30 13 N  25.5439 35.1568 82.4349 0
M  V30 14 C  26.4823 35.9584 82.9968 0
M  V30 15 N  26.2445 36.7917 84.0447 0
M  V30 16 N  27.7737 35.8643 82.4474 0
M  V30 17 C  29.0127 36.3631 82.8949 0
M  V30 18 C  30.1678 35.6165 82.6323 0
M  V30 19 C  31.4153 36.0319 83.1163 0
M  V30 20 S  32.8822 35.0273 82.8638 0
M  V30 21 O  32.6884 34.2362 81.6459 0
M  V30 22 O  34.0470 35.9032 83.0272 0
M  V30 23 N  32.8844 33.9105 84.2014 0
M  V30 24 C  31.5148 37.2308 83.8268 0
M  V30 25 C  30.3779 38.0005 84.0617 0
M  V30 26 C  29.1348 37.5682 83.6020 0
M  V30 27 H  25.3384 41.1840 90.4094 0
M  V30 28 H  23.8118 40.5778 89.7429 0
M  V30 29 H  24.6969 41.8652 88.9145 0
M  V30 30 H  26.5465 40.0972 88.7759 0
M  V30 31 H  22.3106 38.4455 84.3976 0
M  V30 32 H  21.5788 38.0325 85.9408 0
M  V30 33 H  21.8859 39.7062 85.5213 0
M  V30 34 H  23.5453 34.5611 82.5152 0
M  V30 35 H  27.8173 35.3024 81.6015 0
M  V30 36 H  30.0941 34.6935 82.0766 0
M  V30 37 H  32.5929 32.9632 83.9528 0
M  V30 38 H  33.7204 33.9537 84.7956 0
M  V30 39 H  32.4708 37.5657 84.2043 0
M  V30 40 H  30.4588 38.9289 84.6082 0
M  V30 41 H  28.2762 38.1909 83.7958 0
M  V30 END ATOM
M  V30 BEGIN BOND
M  V30 1 1 1 2
M  V30 2 1 1 27
M  V30 3 1 1 28
M  V30 4 1 1 29
M  V30 5 1 2 3
M  V30 6 1 2 30
M  V30 7 2 3 4
M  V30 8 1 3 8
M  V30 9 1 4 5
M  V30 10 1 5 6
M  V30 11 2 5 7
M  V30 12 1 6 31
M  V30 13 1 6 32
M  V30 14 1 6 33
M  V30 15 1 7 8
M  V30 16 1 7 9
M  V30 17 2 9 10
M  V30 18 1 9 15
M  V30 19 1 10 11
M  V30 20 1 10 12
M  V30 21 2 12 13
M  V30 22 1 12 34
M  V30 23 1 13 14
M  V30 24 2 14 15
M  V30 25 1 14 16
M  V30 26 1 16 17
M  V30 27 1 16 35
M  V30 28 2 17 18
M  V30 29 1 17 26
M  V30 30 1 18 19
M  V30 31 1 18 36
M  V30 32 1 19 20
M  V30 33 2 19 24
M  V30 34 2 20 21
M  V30 35 2 20 22
M  V30 36 1 20 23
M  V30 37 1 23 37
M  V30 38 1 23 38
M  V30 39 1 24 25
M  V30 40 1 24 39
M  V30 41 2 25 26
M  V30 42 1 25 40
M  V30 43 1 26 41
M  V30 END BOND
M  V30 END CTAB
M  END
> <s_m_entry_id>
882

> <s_m_entry_name>
result.7797

> <s_m_Source_Path>
D:\OneDrive - zju.edu.cn\DOC\A-Finished\LCK_VS\Planet\LCK-8617

> <s_m_Source_File>
glide-dock_SP_top1262_2_pv.maegz

> <i_m_Source_File_Index>
882

> <PLANET_affinity>
7.232

> <i_lp_mmshare_version>
54117

> <i_f3d_flags>
0

> <s_epik_input>
W0NIM11bTkhdYzFuYyhbQ0gzXSljKHMxKS1jMmMoRilbY0hdbmMobjIpW05IXWMzW2NIXWMoUyg9TykoPU8pW05IMl0pW2NIXVtjSF1bY0hdMw==

> <s_epik_cmdline>
J2VwaWtfcHl0aG9uJywgJy1waCcsICc3LjAnLCAnLXRuJywgJzgnLCAnLW1hJywgJzUwMCcsICctaW1hZScsICc8aW5maWxlLm1hZT4nLCAnLW9tYWUnLCAnPG91dGZpbGUubWFlPic=

> <r_epik_Ionization_Penalty>
  0.0033

> <r_epik_Ionization_Penalty_Charging>
  0.0000

> <r_epik_Ionization_Penalty_Neutral>
  0.0033

> <r_epik_State_Penalty>
  0.0000

> <r_epik_Charging_Adjusted_Penalty>
0

> <i_epik_Tot_Q>
0

> <i_epik_Tot_abs_Q>
0

> <s_lp_Force_Field>
S-OPLS

> <r_lp_Energy>
28.9294

> <b_lp_Chiralities_Consistent>
1

> <s_lp_Variant>
CNC1=NC(C)=C(C2=C(F)C=NC(NC3=CC(S(=O)(N)=O)=CC=C3)=N2)S1-1

> <s_i_glide_gridfile>
glide-grid_1

> <i_i_glide_lignum>
2342

> <i_i_glide_rotatable_bonds>
5

> <r_i_docking_score>
-7.62594772293045

> <r_i_glide_ligand_efficiency>
-0.293305681651171

> <r_i_glide_ligand_efficiency_sa>
-0.868916927789466

> <r_i_glide_ligand_efficiency_ln>
-1.79092879995479

> <r_i_glide_gscore>
-7.62594772293045

> <r_i_glide_lipo>
-2.15472178987631

> <r_i_glide_hbond>
-0.600044991426579

> <r_i_glide_metal>
0

> <r_i_glide_rewards>
-2.48046965197062

> <r_i_glide_evdw>
-36.7543678283691

> <r_i_glide_ecoul>
-4.75862836837769

> <r_i_glide_erotb>
0.26379891859662

> <r_i_glide_esite>
-0.102997561578439

> <r_i_glide_emodel>
-62.9507276256332

> <r_i_glide_energy>
-41.5129961967468

> <r_i_glide_einternal>
2.29600024223328

> <i_i_glide_confnum>
24

> <i_i_glide_posenum>
248

> <r_i_glide_eff_state_penalty>
0

> <r_lp_tautomer_probability>
1

> <s_m_subgroup_title>
glide-dock_SP_top1262_2_pv

> <s_m_subgroupid>
glide-dock_SP_top1262_2_pv

> <b_m_subgroup_collapsed>
0

$$$$
CC(C)S(=O)(NC1=CC=C(C(C(C2=CNC3=NC=C(C=C32)C4=CC=CN=C4)=O)=C1F)F)=O
                    3D
 Schrodinger Suite 2021-3.
  0  0  0     0  0            999 V3000
M  V30 BEGIN CTAB
M  V30 COUNTS 50 53 0 0 0
M  V30 BEGIN ATOM
M  V30 1 C  21.8371 40.5175 85.1787 0
M  V30 2 C  21.3204 40.0618 86.5557 0
M  V30 3 C  19.8171 40.3507 86.7221 0
M  V30 4 S  22.2686 40.8929 87.9878 0
M  V30 5 O  22.3168 42.3405 87.7710 0
M  V30 6 O  21.7311 40.3566 89.2438 0
M  V30 7 N  23.9308 40.2555 87.8720 0
M  V30 8 C  24.8549 40.5221 86.8442 0
M  V30 9 C  24.8201 41.6972 86.0815 0
M  V30 10 C  25.6959 41.8743 85.0130 0
M  V30 11 C  26.6142 40.8801 84.6870 0
M  V30 12 F  27.4526 41.0810 83.6436 0
M  V30 13 C  26.6729 39.7008 85.4400 0
M  V30 14 C  25.8228 39.5473 86.5466 0
M  V30 15 F  25.9020 38.4274 87.3109 0
M  V30 16 C  27.6587 38.6540 85.0552 0
M  V30 17 O  28.8361 38.7571 85.3951 0
M  V30 18 C  27.2343 37.5752 84.1533 0
M  V30 19 C  28.0537 36.9156 83.2437 0
M  V30 20 N  27.3222 36.0214 82.4992 0
M  V30 21 C  25.9276 36.9708 84.0033 0
M  V30 22 C  26.0187 36.0288 82.9348 0
M  V30 23 C  24.6697 37.0847 84.6220 0
M  V30 24 C  23.6041 36.3131 84.1573 0
M  V30 25 C  23.8255 35.4564 83.0723 0
M  V30 26 N  25.0209 35.2837 82.4481 0
M  V30 27 C  22.2735 36.4345 84.7945 0
M  V30 28 C  22.0848 36.2128 86.1655 0
M  V30 29 C  20.8178 36.3646 86.7313 0
M  V30 30 C  19.7680 36.7616 85.9026 0
M  V30 31 N  19.9214 36.9857 84.5721 0
M  V30 32 C  21.1601 36.8133 84.0436 0
M  V30 33 H  21.2139 40.1231 84.3753 0
M  V30 34 H  22.8469 40.1577 84.9898 0
M  V30 35 H  21.8391 41.6050 85.0908 0
M  V30 36 H  21.4976 38.9958 86.6714 0
M  V30 37 H  19.2318 39.9134 85.9117 0
M  V30 38 H  19.4337 39.9363 87.6543 0
M  V30 39 H  19.6155 41.4237 86.7370 0
M  V30 40 H  24.1161 42.4868 86.2869 0
M  V30 41 H  25.6561 42.7836 84.4293 0
M  V30 42 H  29.1070 37.0469 83.0327 0
M  V30 43 H  27.7112 35.4769 81.7387 0
M  V30 44 H  24.4990 37.7586 85.4403 0
M  V30 45 H  23.0150 34.8500 82.6896 0
M  V30 46 H  22.9146 35.9181 86.7904 0
M  V30 47 H  20.6563 36.1905 87.7854 0
M  V30 48 H  18.7754 36.9063 86.3044 0
M  V30 49 H  21.2808 37.0192 82.9911 0
M  V30 50 H  24.1632 39.5143 88.5150 0
M  V30 END ATOM
M  V30 BEGIN BOND
M  V30 1 1 1 2
M  V30 2 1 1 33
M  V30 3 1 1 34
M  V30 4 1 1 35
M  V30 5 1 2 3
M  V30 6 1 2 4
M  V30 7 1 2 36
M  V30 8 1 3 37
M  V30 9 1 3 38
M  V30 10 1 3 39
M  V30 11 2 4 5
M  V30 12 2 4 6
M  V30 13 1 4 7
M  V30 14 1 7 8
M  V30 15 1 7 50
M  V30 16 2 8 9
M  V30 17 1 8 14
M  V30 18 1 9 10
M  V30 19 1 9 40
M  V30 20 2 10 11
M  V30 21 1 10 41
M  V30 22 1 11 12
M  V30 23 1 11 13
M  V30 24 2 13 14
M  V30 25 1 13 16
M  V30 26 1 14 15
M  V30 27 2 16 17
M  V30 28 1 16 18
M  V30 29 2 18 19
M  V30 30 1 18 21
M  V30 31 1 19 20
M  V30 32 1 19 42
M  V30 33 1 20 22
M  V30 34 1 20 43
M  V30 35 2 21 22
M  V30 36 1 21 23
M  V30 37 1 22 26
M  V30 38 2 23 24
M  V30 39 1 23 44
M  V30 40 1 24 25
M  V30 41 1 24 27
M  V30 42 2 25 26
M  V30 43 1 25 45
M  V30 44 2 27 28
M  V30 45 1 27 32
M  V30 46 1 28 29
M  V30 47 1 28 46
M  V30 48 2 29 30
M  V30 49 1 29 47
M  V30 50 1 30 31
M  V30 51 1 30 48
M  V30 52 2 31 32
M  V30 53 1 32 49
M  V30 END BOND
M  V30 END CTAB
M  END
> <s_m_entry_id>
887

> <s_m_entry_name>
result.7956

> <s_m_Source_Path>
D:\OneDrive - zju.edu.cn\DOC\A-Finished\LCK_VS\Planet\LCK-8617

> <s_m_Source_File>
glide-dock_SP_top1262_2_pv.maegz

> <i_m_Source_File_Index>
887

> <PLANET_affinity>
7.422

> <i_lp_mmshare_version>
54117

> <i_f3d_flags>
0

> <s_epik_input>
W0NIM11bQ0hdKFtDSDNdKVMoPU8pKD1PKVtOSF1jMVtjSF1bY0hdYyhGKWMoYzFGKUMoPU8pYzJbY0hdW25IXWMoYzIzKW5bY0hdYyhbY0hdMyktYzRbY0hdW2NIXVtjSF1uW2NIXTQ=

> <s_epik_cmdline>
J2VwaWtfcHl0aG9uJywgJy1waCcsICc3LjAnLCAnLXRuJywgJzgnLCAnLW1hJywgJzUwMCcsICctaW1hZScsICc8aW5maWxlLm1hZT4nLCAnLW9tYWUnLCAnPG91dGZpbGUubWFlPic=

> <r_epik_Ionization_Penalty>
  0.4295

> <r_epik_Ionization_Penalty_Charging>
  0.0000

> <r_epik_Ionization_Penalty_Neutral>
  0.4295

> <r_epik_State_Penalty>
  0.4273

> <r_epik_Charging_Adjusted_Penalty>
0.427281

> <i_epik_Tot_Q>
0

> <i_epik_Tot_abs_Q>
0

> <s_lp_Force_Field>
S-OPLS

> <r_lp_Energy>
37.4028

> <b_lp_Chiralities_Consistent>
1

> <s_lp_Variant>
CC(C)S(=O)(NC1=CC=C(C(C(C2=CNC3=NC=C(C=C32)C4=CC=CN=C4)=O)=C1F)F)=O-2

> <s_i_glide_gridfile>
glide-grid_1

> <i_i_glide_lignum>
2058

> <i_i_glide_rotatable_bonds>
6

> <r_i_docking_score>
-7.6220245689519

> <r_i_glide_ligand_efficiency>
-0.238188267779747

> <r_i_glide_ligand_efficiency_sa>
-0.75620061280651

> <r_i_glide_ligand_efficiency_ln>
-1.70677906953105

> <r_i_glide_gscore>
-8.0493245689519

> <r_i_glide_lipo>
-2.57414436332394

> <r_i_glide_hbond>
-0.555459145592345

> <r_i_glide_metal>
0

> <r_i_glide_rewards>
-2.03074675596556

> <r_i_glide_evdw>
-43.5169334411621

> <r_i_glide_ecoul>
-6.31787157058716

> <r_i_glide_erotb>
0.33758787652541

> <r_i_glide_esite>
-0.103034772949296

> <r_i_glide_emodel>
-72.9310272710769

> <r_i_glide_energy>
-49.8348050117493

> <r_i_glide_einternal>
3.25320672988892

> <i_i_glide_confnum>
131

> <i_i_glide_posenum>
248

> <r_i_glide_eff_state_penalty>
0.4273

> <s_m_subgroup_title>
glide-dock_SP_top1262_2_pv

> <s_m_subgroupid>
glide-dock_SP_top1262_2_pv

> <b_m_subgroup_collapsed>
0

$$$$
ClC1=CC(C2=CC=C(N=CC(C(C)=O)=C3N[C@H]4CC[C@H](CN(C)C)CC4)C3=N2)=CC(Cl)=C1O.[H]Cl
                    3D
 Schrodinger Suite 2021-3.
  0  0  0     0  0            999 V3000
M  V30 BEGIN CTAB
M  V30 COUNTS 62 65 0 0 0
M  V30 BEGIN ATOM
M  V30 1 O  18.8830 40.4507 87.6367 0
M  V30 2 C  19.7968 39.6976 86.9369 0
M  V30 3 C  21.1097 39.5767 87.4123 0
M  V30 4 Cl 21.6190 40.3668 88.8655 0
M  V30 5 C  22.0397 38.8038 86.7149 0
M  V30 6 C  21.6954 38.1408 85.5277 0
M  V30 7 C  20.3782 38.2870 85.0606 0
M  V30 8 C  19.4336 39.0460 85.7536 0
M  V30 9 Cl 17.8240 39.1514 85.1280 0
M  V30 10 C  22.6930 37.3115 84.7735 0
M  V30 11 C  22.2885 36.2536 83.9553 0
M  V30 12 C  23.2293 35.5565 83.2078 0
M  V30 13 N  24.0087 37.6535 84.8938 0
M  V30 14 C  24.9659 36.9881 84.1636 0
M  V30 15 C  24.5907 35.9205 83.2937 0
M  V30 16 C  26.3600 37.3546 84.2346 0
M  V30 17 C  27.2863 36.6269 83.4360 0
M  V30 18 C  26.7832 35.5911 82.6383 0
M  V30 19 N  25.4861 35.2376 82.5460 0
M  V30 20 C  28.7867 36.7566 83.4897 0
M  V30 21 O  29.4136 37.2058 84.4435 0
M  V30 22 C  29.5944 36.3557 82.2521 0
M  V30 23 N  26.7144 38.3652 85.1593 0
M  V30 24 C  27.4932 39.5648 84.8273 0 CFG=2
M  V30 25 C  27.8386 40.2872 86.1500 0
M  V30 26 C  26.5765 40.8470 86.8525 0
M  V30 27 C  25.7535 41.7889 85.9339 0 CFG=1
M  V30 28 C  25.4263 41.0873 84.5854 0
M  V30 29 C  26.7013 40.5217 83.9102 0
M  V30 30 C  24.5065 42.3216 86.6908 0
M  V30 31 N  23.6312 43.2962 85.8607 0 CHG=1
M  V30 32 C  22.3323 43.6424 86.6272 0
M  V30 33 C  24.3759 44.5833 85.4397 0
M  V30 34 H  23.0420 38.7180 87.1095 0
M  V30 35 H  20.0683 37.8136 84.1408 0
M  V30 36 H  21.2515 35.9749 83.8691 0
M  V30 37 H  22.9257 34.7548 82.5500 0
M  V30 38 H  27.4329 34.9568 82.0492 0
M  V30 39 H  28.9956 36.3564 81.3433 0
M  V30 40 H  30.4152 37.0569 82.1033 0
M  V30 41 H  30.0238 35.3639 82.3886 0
M  V30 42 H  25.9242 38.6091 85.7384 0
M  V30 43 H  28.4108 39.3094 84.3055 0
M  V30 44 H  28.5396 41.0997 85.9499 0
M  V30 45 H  28.3665 39.6058 86.8204 0
M  V30 46 H  26.8607 41.3708 87.7665 0
M  V30 47 H  25.9450 40.0248 87.1941 0
M  V30 48 H  26.4251 42.6175 85.7064 0
M  V30 49 H  24.7128 40.2822 84.7601 0
M  V30 50 H  24.9103 41.7722 83.9113 0
M  V30 51 H  27.3508 41.3559 83.6429 0
M  V30 52 H  26.4830 40.0227 82.9672 0
M  V30 53 H  24.7790 42.8709 87.5945 0
M  V30 54 H  23.8409 41.4995 86.9639 0
M  V30 55 H  22.6060 44.0805 87.5883 0
M  V30 56 H  21.7645 42.7207 86.7629 0
M  V30 57 H  21.7503 44.3550 86.0432 0
M  V30 58 H  24.7009 45.0989 86.3445 0
M  V30 59 H  25.2202 44.3012 84.8114 0
M  V30 60 H  23.6831 45.1965 84.8612 0
M  V30 61 H  17.9509 40.4197 87.3443 0
M  V30 62 H  23.3562 42.8223 85.0097 0
M  V30 END ATOM
M  V30 BEGIN BOND
M  V30 1 1 1 2
M  V30 2 1 1 61
M  V30 3 2 2 3
M  V30 4 1 2 8
M  V30 5 1 3 4
M  V30 6 1 3 5
M  V30 7 2 5 6
M  V30 8 1 5 34
M  V30 9 1 6 7
M  V30 10 1 6 10
M  V30 11 2 7 8
M  V30 12 1 7 35
M  V30 13 1 8 9
M  V30 14 2 10 11
M  V30 15 1 10 13
M  V30 16 1 11 12
M  V30 17 1 11 36
M  V30 18 2 12 15
M  V30 19 1 12 37
M  V30 20 2 13 14
M  V30 21 1 14 15
M  V30 22 1 14 16
M  V30 23 1 15 19
M  V30 24 2 16 17
M  V30 25 1 16 23
M  V30 26 1 17 18
M  V30 27 1 17 20
M  V30 28 2 18 19
M  V30 29 1 18 38
M  V30 30 2 20 21
M  V30 31 1 20 22
M  V30 32 1 22 39
M  V30 33 1 22 40
M  V30 34 1 22 41
M  V30 35 1 23 24
M  V30 36 1 23 42
M  V30 37 1 24 25
M  V30 38 1 24 29
M  V30 39 1 24 43
M  V30 40 1 25 26
M  V30 41 1 25 44
M  V30 42 1 25 45
M  V30 43 1 26 27
M  V30 44 1 26 46
M  V30 45 1 26 47
M  V30 46 1 27 28
M  V30 47 1 27 30
M  V30 48 1 27 48
M  V30 49 1 28 29
M  V30 50 1 28 49
M  V30 51 1 28 50
M  V30 52 1 29 51
M  V30 53 1 29 52
M  V30 54 1 30 31
M  V30 55 1 30 53
M  V30 56 1 30 54
M  V30 57 1 31 32
M  V30 58 1 31 33
M  V30 59 1 31 62
M  V30 60 1 32 55
M  V30 61 1 32 56
M  V30 62 1 32 57
M  V30 63 1 33 58
M  V30 64 1 33 59
M  V30 65 1 33 60
M  V30 END BOND
M  V30 END CTAB
M  END
> <s_m_entry_id>
914

> <s_m_entry_name>
result.880

> <s_m_Source_Path>
D:\OneDrive - zju.edu.cn\DOC\A-Finished\LCK_VS\Planet\LCK-8617

> <s_m_Source_File>
glide-dock_SP_top1262_2_pv.maegz

> <i_m_Source_File_Index>
914

> <PLANET_affinity>
9.271

> <i_lp_mmshare_version>
54117

> <i_f3d_flags>
0

> <s_epik_input>
W09IXWMxYyhDbClbY0hdYyhbY0hdYzFDbCktYyhuMilbY0hdW2NIXWMoYzIzKW5bY0hdYyhDKD1PKVtDSDNdKWMzW05IXVtDQEBIXTRbQ0gyXVtDSDJdW0NAQEhdKFtDSDJdW0NIMl00KVtDSDJdTihbQ0gzXSlbQ0gzXQ==

> <s_epik_cmdline>
J2VwaWtfcHl0aG9uJywgJy1waCcsICc3LjAnLCAnLXRuJywgJzgnLCAnLW1hJywgJzUwMCcsICctaW1hZScsICc8aW5maWxlLm1hZT4nLCAnLW9tYWUnLCAnPG91dGZpbGUubWFlPic=

> <r_epik_Ionization_Penalty>
  0.4756

> <r_epik_Ionization_Penalty_Charging>
  0.0011

> <r_epik_Ionization_Penalty_Neutral>
  0.4745

> <r_epik_State_Penalty>
  0.4795

> <r_epik_Charging_Adjusted_Penalty>
0.480633

> <i_epik_Tot_Q>
1

> <i_epik_Tot_abs_Q>
1

> <s_lp_Force_Field>
S-OPLS

> <r_lp_Energy>
70.9302

> <b_lp_Chiralities_Consistent>
1

> <s_lp_Variant>
ClC1=CC(C2=CC=C(N=CC(C(C)=O)=C3N[C@H]4CC[C@H](CN(C)C)CC4)C3=N2)=CC(Cl)=C1O.[H]Cl-2

> <s_i_glide_gridfile>
glide-grid_1

> <i_i_glide_lignum>
429

> <i_i_glide_rotatable_bonds>
7

> <r_i_docking_score>
-7.60312894761428

> <r_i_glide_ligand_efficiency>
-0.230397846897402

> <r_i_glide_ligand_efficiency_sa>
-0.739009002619224

> <r_i_glide_ligand_efficiency_ln>
-1.6908965110546

> <r_i_glide_gscore>
-8.08262894761428

> <r_i_glide_lipo>
-2.76104714821049

> <r_i_glide_hbond>
-0.362493454973885

> <r_i_glide_metal>
0

> <r_i_glide_rewards>
-1.47011002383964

> <r_i_glide_evdw>
-41.4481658935547

> <r_i_glide_ecoul>
-11.4964647293091

> <r_i_glide_erotb>
0.340981609289322

> <r_i_glide_esite>
-0.0330819258054938

> <r_i_glide_emodel>
-80.6989500804079

> <r_i_glide_energy>
-52.9446306228638

> <r_i_glide_einternal>
6.67185831069946

> <i_i_glide_confnum>
29

> <i_i_glide_posenum>
344

> <r_i_glide_eff_state_penalty>
0.4795

> <r_lp_tautomer_probability>
0.99995

> <s_m_subgroup_title>
glide-dock_SP_top1262_2_pv

> <s_m_subgroupid>
glide-dock_SP_top1262_2_pv

> <b_m_subgroup_collapsed>
0

$$$$
O=C(C1=CC(CCCC2)=C2S1)NC3=CC=CC(C(N=C4NC5=CC=C(C6N(C)CCN(C)C6=O)C=C5)=CN(C)C4...
                    3D
 Schrodinger Suite 2021-3.
  0  0  0     0  0            999 V3000
M  V30 BEGIN CTAB
M  V30 COUNTS 79 84 0 0 0
M  V30 BEGIN ATOM
M  V30 1 C  18.2131 38.1731 84.3608 0
M  V30 2 C  17.1803 38.6493 85.4108 0
M  V30 3 C  16.9327 37.6150 86.5219 0
M  V30 4 C  18.2028 37.3603 87.3566 0
M  V30 5 C  19.3797 37.1565 86.4132 0
M  V30 6 C  19.4050 37.5230 85.0608 0
M  V30 7 S  20.8923 36.4833 86.9285 0
M  V30 8 C  21.5863 36.6855 85.3417 0
M  V30 9 C  20.6598 37.2806 84.4784 0
M  V30 10 C  22.9815 36.3712 85.1167 0
M  V30 11 O  23.7600 36.1767 86.0455 0
M  V30 12 N  23.3879 36.3562 83.8346 0
M  V30 13 C  24.7420 36.2273 83.4706 0
M  V30 14 C  25.0715 35.0699 82.7782 0
M  V30 15 C  26.3945 34.8104 82.4594 0
M  V30 16 C  27.3924 35.6926 82.8434 0
M  V30 17 C  27.1058 36.8788 83.5360 0
M  V30 18 C  25.7412 37.1740 83.8131 0
M  V30 19 C  25.3136 38.5119 84.4299 0
M  V30 20 C  28.2771 37.7352 83.9260 0
M  V30 21 N  28.1621 38.4621 85.0852 0
M  V30 22 C  29.1576 39.1775 85.4952 0
M  V30 23 C  30.4936 39.2394 84.8127 0
M  V30 24 O  31.4412 39.9080 85.2433 0
M  V30 25 N  30.5588 38.4801 83.6582 0
M  V30 26 C  29.4687 37.7353 83.2602 0
M  V30 27 C  31.8315 38.4435 82.9226 0
M  V30 28 N  29.0291 39.9846 86.6263 0
M  V30 29 C  27.9744 40.1997 87.5351 0
M  V30 30 C  27.9572 41.4153 88.2237 0
M  V30 31 C  26.9177 41.7181 89.0995 0
M  V30 32 C  25.8783 40.8029 89.2971 0
M  V30 33 C  25.9292 39.5605 88.6560 0
M  V30 34 C  26.9713 39.2589 87.7849 0
M  V30 35 C  24.6675 41.1490 90.1897 0 CFG=2
M  V30 36 N  24.0191 42.4430 89.8748 0 CFG=1
M  V30 37 C  23.6506 42.5377 88.4576 0
M  V30 38 C  22.7993 42.5813 90.6693 0
M  V30 39 C  23.1269 42.6148 92.1779 0
M  V30 40 N  24.2484 41.7383 92.5790 0
M  V30 41 C  24.4954 41.6668 94.0240 0
M  V30 42 C  25.0973 41.1124 91.7029 0
M  V30 43 O  26.0815 40.4723 92.0897 0
M  V30 44 H  17.7403 37.4605 83.6825 0
M  V30 45 H  18.5372 39.0046 83.7351 0
M  V30 46 H  17.5314 39.5660 85.8834 0
M  V30 47 H  16.2378 38.8992 84.9258 0
M  V30 48 H  16.1189 37.9503 87.1731 0
M  V30 49 H  16.6009 36.6774 86.0737 0
M  V30 50 H  18.3893 38.2222 87.9964 0
M  V30 51 H  18.0579 36.4996 88.0114 0
M  V30 52 H  20.8778 37.5453 83.4558 0
M  V30 53 H  22.7022 36.4079 83.0988 0
M  V30 54 H  24.3038 34.3604 82.5061 0
M  V30 55 H  26.6743 33.9123 81.9322 0
M  V30 56 H  28.4088 35.4107 82.6065 0
M  V30 57 H  25.2178 38.4350 85.5085 0
M  V30 58 H  25.9834 39.3297 84.1791 0
M  V30 59 H  24.3484 38.8241 84.0427 0
M  V30 60 H  29.6751 37.1583 82.3698 0
M  V30 61 H  32.3948 37.5533 83.1936 0
M  V30 62 H  31.6456 38.4190 81.8513 0
M  V30 63 H  32.4641 39.3171 83.1172 0
M  V30 64 H  29.8294 40.5727 86.8067 0
M  V30 65 H  28.7385 42.1442 88.0683 0
M  V30 66 H  26.9004 42.6767 89.5935 0
M  V30 67 H  25.1514 38.8324 88.8255 0
M  V30 68 H  26.9827 38.2917 87.3073 0
M  V30 69 H  23.9414 40.3423 90.0732 0
M  V30 70 H  23.0041 41.7104 88.1574 0
M  V30 71 H  23.1276 43.4739 88.2552 0
M  V30 72 H  24.5220 42.5318 87.8014 0
M  V30 73 H  22.1699 41.7155 90.4609 0
M  V30 74 H  22.2477 43.4827 90.3929 0
M  V30 75 H  22.2285 42.4070 92.7613 0
M  V30 76 H  23.4457 43.6288 92.4242 0
M  V30 77 H  23.6513 41.1773 94.5098 0
M  V30 78 H  25.4006 41.1263 94.2966 0
M  V30 79 H  24.5686 42.6742 94.4283 0
M  V30 END ATOM
M  V30 BEGIN BOND
M  V30 1 1 1 2
M  V30 2 1 1 6
M  V30 3 1 1 44
M  V30 4 1 1 45
M  V30 5 1 2 3
M  V30 6 1 2 46
M  V30 7 1 2 47
M  V30 8 1 3 4
M  V30 9 1 3 48
M  V30 10 1 3 49
M  V30 11 1 4 5
M  V30 12 1 4 50
M  V30 13 1 4 51
M  V30 14 2 5 6
M  V30 15 1 5 7
M  V30 16 1 6 9
M  V30 17 1 7 8
M  V30 18 2 8 9
M  V30 19 1 8 10
M  V30 20 1 9 52
M  V30 21 2 10 11
M  V30 22 1 10 12
M  V30 23 1 12 13
M  V30 24 1 12 53
M  V30 25 2 13 14
M  V30 26 1 13 18
M  V30 27 1 14 15
M  V30 28 1 14 54
M  V30 29 2 15 16
M  V30 30 1 15 55
M  V30 31 1 16 17
M  V30 32 1 16 56
M  V30 33 2 17 18
M  V30 34 1 17 20
M  V30 35 1 18 19
M  V30 36 1 19 57
M  V30 37 1 19 58
M  V30 38 1 19 59
M  V30 39 1 20 21
M  V30 40 2 20 26
M  V30 41 2 21 22
M  V30 42 1 22 23
M  V30 43 1 22 28
M  V30 44 2 23 24
M  V30 45 1 23 25
M  V30 46 1 25 26
M  V30 47 1 25 27
M  V30 48 1 26 60
M  V30 49 1 27 61
M  V30 50 1 27 62
M  V30 51 1 27 63
M  V30 52 1 28 29
M  V30 53 1 28 64
M  V30 54 2 29 30
M  V30 55 1 29 34
M  V30 56 1 30 31
M  V30 57 1 30 65
M  V30 58 2 31 32
M  V30 59 1 31 66
M  V30 60 1 32 33
M  V30 61 1 32 35
M  V30 62 2 33 34
M  V30 63 1 33 67
M  V30 64 1 34 68
M  V30 65 1 35 36
M  V30 66 1 35 42
M  V30 67 1 35 69
M  V30 68 1 36 37
M  V30 69 1 36 38
M  V30 70 1 37 70
M  V30 71 1 37 71
M  V30 72 1 37 72
M  V30 73 1 38 39
M  V30 74 1 38 73
M  V30 75 1 38 74
M  V30 76 1 39 40
M  V30 77 1 39 75
M  V30 78 1 39 76
M  V30 79 1 40 41
M  V30 80 1 40 42
M  V30 81 1 41 77
M  V30 82 1 41 78
M  V30 83 1 41 79
M  V30 84 2 42 43
M  V30 END BOND
M  V30 END CTAB
M  END
> <s_m_entry_id>
930

> <s_m_entry_name>
result.4446

> <s_m_Source_Path>
D:\OneDrive - zju.edu.cn\DOC\A-Finished\LCK_VS\Planet\LCK-8617

> <s_m_Source_File>
glide-dock_SP_top1262_2_pv.maegz

> <i_m_Source_File_Index>
930

> <PLANET_affinity>
8.448

> <i_lp_mmshare_version>
54117

> <i_f3d_flags>
0

> <s_epik_input>
W0NIMl0xW0NIMl1bQ0gyXVtDSDJdYyhjMTIpW2NIXWMoczIpQyg9TylbTkhdYzNbY0hdW2NIXVtjSF1jKGMzW0NIM10pLWM0bmMoYyg9TyluKFtjSF00KVtDSDNdKVtOSF1jNVtjSF1bY0hdYyhbY0hdW2NIXTUpW0NAQEhdNk4oW0NIM10pW0NIMl1bQ0gyXU4oW0NIM10pQzY9Tw==

> <s_epik_cmdline>
J2VwaWtfcHl0aG9uJywgJy1waCcsICc3LjAnLCAnLXRuJywgJzgnLCAnLW1hJywgJzUwMCcsICctaW1hZScsICc8aW5maWxlLm1hZT4nLCAnLW9tYWUnLCAnPG91dGZpbGUubWFlPic=

> <r_epik_Ionization_Penalty>
  0.0733

> <r_epik_Ionization_Penalty_Charging>
  0.0000

> <r_epik_Ionization_Penalty_Neutral>
  0.0733

> <r_epik_State_Penalty>
  0.1886

> <r_epik_Charging_Adjusted_Penalty>
0.188615

> <i_epik_Tot_Q>
0

> <i_epik_Tot_abs_Q>
0

> <s_lp_Force_Field>
S-OPLS

> <r_lp_Energy>
114.429

> <b_lp_Chiralities_Consistent>
1

> <s_lp_Variant>
O=C(C1=CC(CCCC2)=C2S1)NC3=CC=CC(C(N=C4NC5=CC=C(C6N(C)CCN(C)C6=O)C=C5)=CN(C)C4...-1

> <s_i_glide_gridfile>
glide-grid_1

> <i_i_glide_lignum>
835

> <i_i_glide_rotatable_bonds>
7

> <r_i_docking_score>
-7.59701698792173

> <r_i_glide_ligand_efficiency>
-0.176674813672598

> <r_i_glide_ligand_efficiency_sa>
-0.618962198763753

> <r_i_glide_ligand_efficiency_ln>
-1.59560967892967

> <r_i_glide_gscore>
-7.78561698792173

> <r_i_glide_lipo>
-4.37414577775046

> <r_i_glide_hbond>
0

> <r_i_glide_metal>
0

> <r_i_glide_rewards>
-0.968081384981613

> <r_i_glide_evdw>
-54.621265411377

> <r_i_glide_ecoul>
-0.0591639988124371

> <r_i_glide_erotb>
0.298467156600129

> <r_i_glide_esite>
-0.00191911139906582

> <r_i_glide_emodel>
-78.0183191172751

> <r_i_glide_energy>
-54.6804294101894

> <r_i_glide_einternal>
6.2099552154541

> <i_i_glide_confnum>
360

> <i_i_glide_posenum>
85

> <r_i_glide_eff_state_penalty>
0.1886

> <r_lp_tautomer_probability>
1

> <s_m_subgroup_title>
glide-dock_SP_top1262_2_pv

> <s_m_subgroupid>
glide-dock_SP_top1262_2_pv

> <b_m_subgroup_collapsed>
0

$$$$
CC1=C(C(N=C2NC3=CC=C([C@@H]4N(C)CCN(C)C4=O)C=C3)=CN(C)C2=O)C=CC=C1NC(C5=CC6=C...
                    3D
 Schrodinger Suite 2021-3.
  0  0  0     0  0            999 V3000
M  V30 BEGIN CTAB
M  V30 COUNTS 79 84 0 0 0
M  V30 BEGIN ATOM
M  V30 1 C  18.2131 38.1731 84.3608 0
M  V30 2 C  17.1803 38.6493 85.4108 0
M  V30 3 C  16.9327 37.6150 86.5219 0
M  V30 4 C  18.2028 37.3603 87.3566 0
M  V30 5 C  19.3797 37.1565 86.4132 0
M  V30 6 C  19.4050 37.5230 85.0608 0
M  V30 7 S  20.8923 36.4833 86.9285 0
M  V30 8 C  21.5863 36.6855 85.3417 0
M  V30 9 C  20.6598 37.2806 84.4784 0
M  V30 10 C  22.9815 36.3712 85.1167 0
M  V30 11 O  23.7600 36.1767 86.0455 0
M  V30 12 N  23.3879 36.3562 83.8346 0
M  V30 13 C  24.7420 36.2273 83.4706 0
M  V30 14 C  25.0715 35.0699 82.7782 0
M  V30 15 C  26.3945 34.8104 82.4594 0
M  V30 16 C  27.3924 35.6926 82.8434 0
M  V30 17 C  27.1058 36.8788 83.5360 0
M  V30 18 C  25.7412 37.1740 83.8131 0
M  V30 19 C  25.3136 38.5119 84.4299 0
M  V30 20 C  28.2771 37.7352 83.9260 0
M  V30 21 N  28.1621 38.4621 85.0852 0
M  V30 22 C  29.1576 39.1775 85.4952 0
M  V30 23 C  30.4936 39.2394 84.8127 0
M  V30 24 O  31.4412 39.9080 85.2433 0
M  V30 25 N  30.5588 38.4801 83.6582 0
M  V30 26 C  29.4687 37.7353 83.2602 0
M  V30 27 C  31.8315 38.4435 82.9226 0
M  V30 28 N  29.0291 39.9846 86.6263 0
M  V30 29 C  27.9744 40.1997 87.5351 0
M  V30 30 C  27.9572 41.4153 88.2237 0
M  V30 31 C  26.9177 41.7181 89.0995 0
M  V30 32 C  25.8783 40.8029 89.2971 0
M  V30 33 C  25.9292 39.5605 88.6560 0
M  V30 34 C  26.9713 39.2589 87.7849 0
M  V30 35 C  24.6675 41.1490 90.1897 0 CFG=2
M  V30 36 N  24.0191 42.4430 89.8748 0 CFG=1
M  V30 37 C  23.6506 42.5377 88.4576 0
M  V30 38 C  22.7993 42.5813 90.6693 0
M  V30 39 C  23.1269 42.6148 92.1779 0
M  V30 40 N  24.2484 41.7383 92.5790 0
M  V30 41 C  24.4954 41.6668 94.0240 0
M  V30 42 C  25.0973 41.1124 91.7029 0
M  V30 43 O  26.0815 40.4723 92.0897 0
M  V30 44 H  17.7403 37.4605 83.6825 0
M  V30 45 H  18.5372 39.0046 83.7351 0
M  V30 46 H  17.5314 39.5660 85.8834 0
M  V30 47 H  16.2378 38.8992 84.9258 0
M  V30 48 H  16.1189 37.9503 87.1731 0
M  V30 49 H  16.6009 36.6774 86.0737 0
M  V30 50 H  18.3893 38.2222 87.9964 0
M  V30 51 H  18.0579 36.4996 88.0114 0
M  V30 52 H  20.8778 37.5453 83.4558 0
M  V30 53 H  22.7022 36.4079 83.0988 0
M  V30 54 H  24.3038 34.3604 82.5061 0
M  V30 55 H  26.6743 33.9123 81.9322 0
M  V30 56 H  28.4088 35.4107 82.6065 0
M  V30 57 H  25.2178 38.4350 85.5085 0
M  V30 58 H  25.9834 39.3297 84.1791 0
M  V30 59 H  24.3484 38.8241 84.0427 0
M  V30 60 H  29.6751 37.1583 82.3698 0
M  V30 61 H  32.3948 37.5533 83.1936 0
M  V30 62 H  31.6456 38.4190 81.8513 0
M  V30 63 H  32.4641 39.3171 83.1172 0
M  V30 64 H  29.8294 40.5727 86.8067 0
M  V30 65 H  28.7385 42.1442 88.0683 0
M  V30 66 H  26.9004 42.6767 89.5935 0
M  V30 67 H  25.1514 38.8324 88.8255 0
M  V30 68 H  26.9827 38.2917 87.3073 0
M  V30 69 H  23.9414 40.3423 90.0732 0
M  V30 70 H  23.0041 41.7104 88.1574 0
M  V30 71 H  23.1276 43.4739 88.2552 0
M  V30 72 H  24.5220 42.5318 87.8014 0
M  V30 73 H  22.1699 41.7155 90.4609 0
M  V30 74 H  22.2477 43.4827 90.3929 0
M  V30 75 H  22.2285 42.4070 92.7613 0
M  V30 76 H  23.4457 43.6288 92.4242 0
M  V30 77 H  23.6513 41.1773 94.5098 0
M  V30 78 H  25.4006 41.1263 94.2966 0
M  V30 79 H  24.5686 42.6742 94.4283 0
M  V30 END ATOM
M  V30 BEGIN BOND
M  V30 1 1 1 2
M  V30 2 1 1 6
M  V30 3 1 1 44
M  V30 4 1 1 45
M  V30 5 1 2 3
M  V30 6 1 2 46
M  V30 7 1 2 47
M  V30 8 1 3 4
M  V30 9 1 3 48
M  V30 10 1 3 49
M  V30 11 1 4 5
M  V30 12 1 4 50
M  V30 13 1 4 51
M  V30 14 2 5 6
M  V30 15 1 5 7
M  V30 16 1 6 9
M  V30 17 1 7 8
M  V30 18 2 8 9
M  V30 19 1 8 10
M  V30 20 1 9 52
M  V30 21 2 10 11
M  V30 22 1 10 12
M  V30 23 1 12 13
M  V30 24 1 12 53
M  V30 25 2 13 14
M  V30 26 1 13 18
M  V30 27 1 14 15
M  V30 28 1 14 54
M  V30 29 2 15 16
M  V30 30 1 15 55
M  V30 31 1 16 17
M  V30 32 1 16 56
M  V30 33 2 17 18
M  V30 34 1 17 20
M  V30 35 1 18 19
M  V30 36 1 19 57
M  V30 37 1 19 58
M  V30 38 1 19 59
M  V30 39 1 20 21
M  V30 40 2 20 26
M  V30 41 2 21 22
M  V30 42 1 22 23
M  V30 43 1 22 28
M  V30 44 2 23 24
M  V30 45 1 23 25
M  V30 46 1 25 26
M  V30 47 1 25 27
M  V30 48 1 26 60
M  V30 49 1 27 61
M  V30 50 1 27 62
M  V30 51 1 27 63
M  V30 52 1 28 29
M  V30 53 1 28 64
M  V30 54 2 29 30
M  V30 55 1 29 34
M  V30 56 1 30 31
M  V30 57 1 30 65
M  V30 58 2 31 32
M  V30 59 1 31 66
M  V30 60 1 32 33
M  V30 61 1 32 35
M  V30 62 2 33 34
M  V30 63 1 33 67
M  V30 64 1 34 68
M  V30 65 1 35 36
M  V30 66 1 35 42
M  V30 67 1 35 69
M  V30 68 1 36 37
M  V30 69 1 36 38
M  V30 70 1 37 70
M  V30 71 1 37 71
M  V30 72 1 37 72
M  V30 73 1 38 39
M  V30 74 1 38 73
M  V30 75 1 38 74
M  V30 76 1 39 40
M  V30 77 1 39 75
M  V30 78 1 39 76
M  V30 79 1 40 41
M  V30 80 1 40 42
M  V30 81 1 41 77
M  V30 82 1 41 78
M  V30 83 1 41 79
M  V30 84 2 42 43
M  V30 END BOND
M  V30 END CTAB
M  END
> <s_m_entry_id>
931

> <s_m_entry_name>
result.4447

> <s_m_Source_Path>
D:\OneDrive - zju.edu.cn\DOC\A-Finished\LCK_VS\Planet\LCK-8617

> <s_m_Source_File>
glide-dock_SP_top1262_2_pv.maegz

> <i_m_Source_File_Index>
931

> <PLANET_affinity>
8.448

> <i_lp_mmshare_version>
54117

> <i_f3d_flags>
0

> <s_epik_input>
W0NIMl0xW0NIMl1bQ0gyXVtDSDJdYyhjMTIpW2NIXWMoczIpQyg9TylbTkhdYzNbY0hdW2NIXVtjSF1jKGMzW0NIM10pLWM0bmMoYyg9TyluKFtjSF00KVtDSDNdKVtOSF1jNVtjSF1bY0hdYyhbY0hdW2NIXTUpW0NAQEhdNk4oW0NIM10pW0NIMl1bQ0gyXU4oW0NIM10pQzY9Tw==

> <s_epik_cmdline>
J2VwaWtfcHl0aG9uJywgJy1waCcsICc3LjAnLCAnLXRuJywgJzgnLCAnLW1hJywgJzUwMCcsICctaW1hZScsICc8aW5maWxlLm1hZT4nLCAnLW9tYWUnLCAnPG91dGZpbGUubWFlPic=

> <r_epik_Ionization_Penalty>
  0.0733

> <r_epik_Ionization_Penalty_Charging>
  0.0000

> <r_epik_Ionization_Penalty_Neutral>
  0.0733

> <r_epik_State_Penalty>
  0.1886

> <r_epik_Charging_Adjusted_Penalty>
0.188615

> <i_epik_Tot_Q>
0

> <i_epik_Tot_abs_Q>
0

> <s_lp_Force_Field>
S-OPLS

> <r_lp_Energy>
114.429

> <b_lp_Chiralities_Consistent>
1

> <s_lp_Variant>
CC1=C(C(N=C2NC3=CC=C([C@@H]4N(C)CCN(C)C4=O)C=C3)=CN(C)C2=O)C=CC=C1NC(C5=CC6=C...-1

> <s_i_glide_gridfile>
glide-grid_1

> <i_i_glide_lignum>
838

> <i_i_glide_rotatable_bonds>
7

> <r_i_docking_score>
-7.59701698792173

> <r_i_glide_ligand_efficiency>
-0.176674813672598

> <r_i_glide_ligand_efficiency_sa>
-0.618962198763753

> <r_i_glide_ligand_efficiency_ln>
-1.59560967892967

> <r_i_glide_gscore>
-7.78561698792173

> <r_i_glide_lipo>
-4.37414577775046

> <r_i_glide_hbond>
0

> <r_i_glide_metal>
0

> <r_i_glide_rewards>
-0.968081384981613

> <r_i_glide_evdw>
-54.621265411377

> <r_i_glide_ecoul>
-0.0591639988124371

> <r_i_glide_erotb>
0.298467156600129

> <r_i_glide_esite>
-0.00191911139906582

> <r_i_glide_emodel>
-78.0183191172751

> <r_i_glide_energy>
-54.6804294101894

> <r_i_glide_einternal>
6.2099552154541

> <i_i_glide_confnum>
360

> <i_i_glide_posenum>
85

> <r_i_glide_eff_state_penalty>
0.1886

> <r_lp_tautomer_probability>
1

> <s_m_subgroup_title>
glide-dock_SP_top1262_2_pv

> <s_m_subgroupid>
glide-dock_SP_top1262_2_pv

> <b_m_subgroup_collapsed>
0

$$$$
FC1(CCN(C2=NC(C3CCNC3)=CC(NC4=CC5=C(C=N4)C=NN5C(C)C)=N2)C1)F
                    3D
 Schrodinger Suite 2021-3.
  0  0  0     0  0            999 V3000
M  V30 BEGIN CTAB
M  V30 COUNTS 58 62 0 0 0
M  V30 BEGIN ATOM
M  V30 1 F  27.7223 42.0435 86.6796 0
M  V30 2 C  28.5571 41.0087 86.7535 0
M  V30 3 F  28.4837 40.4738 87.9729 0
M  V30 4 C  29.9787 41.4205 86.4338 0
M  V30 5 C  30.5917 40.1387 85.8645 0
M  V30 6 N  29.5100 39.3535 85.2634 0
M  V30 7 C  28.2411 39.9527 85.6981 0
M  V30 8 C  29.6498 38.2252 84.4413 0
M  V30 9 N  30.9029 37.8011 84.1322 0
M  V30 10 C  31.0121 36.6990 83.3401 0
M  V30 11 C  32.4594 36.2493 83.0698 0 CFG=2
M  V30 12 C  32.6487 34.9156 82.3067 0
M  V30 13 C  33.8209 34.2003 82.9768 0
M  V30 14 N  33.6518 34.6057 84.4435 0 CHG=1
M  V30 15 C  33.3327 36.1037 84.3489 0
M  V30 16 C  29.8723 36.0418 82.8447 0
M  V30 17 C  28.6234 36.5263 83.2436 0
M  V30 18 N  28.5097 37.6278 84.0226 0
M  V30 19 N  27.4678 35.8390 82.8438 0
M  V30 20 C  26.1193 35.9206 83.2303 0
M  V30 21 C  25.6698 36.6794 84.3243 0
M  V30 22 N  25.2845 35.2007 82.4433 0
M  V30 23 C  23.9473 35.2570 82.6526 0
M  V30 24 C  23.3967 36.0148 83.6847 0
M  V30 25 C  24.2838 36.7225 84.5246 0
M  V30 26 C  22.0968 36.3566 84.1483 0
M  V30 27 N  22.1604 37.1796 85.1614 0
M  V30 28 N  23.4714 37.3931 85.4302 0
M  V30 29 C  23.8845 38.3795 86.4438 0
M  V30 30 C  22.7976 38.6354 87.5191 0
M  V30 31 C  24.2922 39.6908 85.7410 0
M  V30 32 H  30.5090 41.7770 87.3165 0
M  V30 33 H  30.0096 42.2279 85.6993 0
M  V30 34 H  31.1152 39.5668 86.6315 0
M  V30 35 H  31.3074 40.4052 85.0844 0
M  V30 36 H  27.7272 40.4005 84.8461 0
M  V30 37 H  27.5940 39.1887 86.1319 0
M  V30 38 H  32.9241 37.0479 82.4857 0
M  V30 39 H  31.8011 34.2484 82.4184 0
M  V30 40 H  32.8485 35.0668 81.2438 0
M  V30 41 H  33.7899 33.1101 82.9121 0
M  V30 42 H  34.7953 34.5772 82.6603 0
M  V30 43 H  32.8716 34.1072 84.8496 0
M  V30 44 H  34.3163 36.5686 84.2467 0
M  V30 45 H  32.8647 36.3810 85.2962 0
M  V30 46 H  29.9266 35.1747 82.2044 0
M  V30 47 H  27.6243 35.1806 82.0947 0
M  V30 48 H  26.3318 37.2260 84.9716 0
M  V30 49 H  23.3114 34.7566 81.9438 0
M  V30 50 H  21.1498 36.0489 83.7357 0
M  V30 51 H  24.7623 37.9640 86.9418 0
M  V30 52 H  23.1606 39.3247 88.2820 0
M  V30 53 H  22.4920 37.7161 88.0233 0
M  V30 54 H  21.9027 39.0856 87.0868 0
M  V30 55 H  24.6613 40.4247 86.4581 0
M  V30 56 H  25.0854 39.5289 85.0101 0
M  V30 57 H  23.4479 40.1413 85.2162 0
M  V30 58 H  34.4523 34.3815 85.0316 0
M  V30 END ATOM
M  V30 BEGIN BOND
M  V30 1 1 1 2
M  V30 2 1 2 3
M  V30 3 1 2 4
M  V30 4 1 2 7
M  V30 5 1 4 5
M  V30 6 1 4 32
M  V30 7 1 4 33
M  V30 8 1 5 6
M  V30 9 1 5 34
M  V30 10 1 5 35
M  V30 11 1 6 7
M  V30 12 1 6 8
M  V30 13 1 7 36
M  V30 14 1 7 37
M  V30 15 2 8 9
M  V30 16 1 8 18
M  V30 17 1 9 10
M  V30 18 1 10 11
M  V30 19 2 10 16
M  V30 20 1 11 12
M  V30 21 1 11 15
M  V30 22 1 11 38
M  V30 23 1 12 13
M  V30 24 1 12 39
M  V30 25 1 12 40
M  V30 26 1 13 14
M  V30 27 1 13 41
M  V30 28 1 13 42
M  V30 29 1 14 15
M  V30 30 1 14 43
M  V30 31 1 14 58
M  V30 32 1 15 44
M  V30 33 1 15 45
M  V30 34 1 16 17
M  V30 35 1 16 46
M  V30 36 2 17 18
M  V30 37 1 17 19
M  V30 38 1 19 20
M  V30 39 1 19 47
M  V30 40 2 20 21
M  V30 41 1 20 22
M  V30 42 1 21 25
M  V30 43 1 21 48
M  V30 44 2 22 23
M  V30 45 1 23 24
M  V30 46 1 23 49
M  V30 47 2 24 25
M  V30 48 1 24 26
M  V30 49 1 25 28
M  V30 50 2 26 27
M  V30 51 1 26 50
M  V30 52 1 27 28
M  V30 53 1 28 29
M  V30 54 1 29 30
M  V30 55 1 29 31
M  V30 56 1 29 51
M  V30 57 1 30 52
M  V30 58 1 30 53
M  V30 59 1 30 54
M  V30 60 1 31 55
M  V30 61 1 31 56
M  V30 62 1 31 57
M  V30 END BOND
M  V30 END CTAB
M  END
> <s_m_entry_id>
935

> <s_m_entry_name>
result.1921

> <s_m_Source_Path>
D:\OneDrive - zju.edu.cn\DOC\A-Finished\LCK_VS\Planet\LCK-8617

> <s_m_Source_File>
glide-dock_SP_top1262_2_pv.maegz

> <i_m_Source_File_Index>
935

> <PLANET_affinity>
8.313

> <i_lp_mmshare_version>
54117

> <i_f3d_flags>
0

> <s_epik_input>
RkMxKEYpW0NIMl1bQ0gyXU4oW0NIMl0xKWMybmMoW0NAQEhdM1tDSDJdW0NIMl1bTkhdW0NIMl0zKVtjSF1jKG4yKVtOSF1jKG5bY0hdNClbY0hdYyhjNDUpbihuW2NIXTUpW0NIXShbQ0gzXSlbQ0gzXQ==

> <s_epik_cmdline>
J2VwaWtfcHl0aG9uJywgJy1waCcsICc3LjAnLCAnLXRuJywgJzgnLCAnLW1hJywgJzUwMCcsICctaW1hZScsICc8aW5maWxlLm1hZT4nLCAnLW9tYWUnLCAnPG91dGZpbGUubWFlPic=

> <r_epik_Ionization_Penalty>
  0.0094

> <r_epik_Ionization_Penalty_Charging>
  0.0003

> <r_epik_Ionization_Penalty_Neutral>
  0.0091

> <r_epik_State_Penalty>
  0.0062

> <r_epik_Charging_Adjusted_Penalty>
0.00655181

> <i_epik_Tot_Q>
1

> <i_epik_Tot_abs_Q>
1

> <s_lp_Force_Field>
S-OPLS

> <r_lp_Energy>
22.1292

> <b_lp_Chiralities_Consistent>
1

> <s_lp_Variant>
FC1(CCN(C2=NC(C3CCNC3)=CC(NC4=CC5=C(C=N4)C=NN5C(C)C)=N2)C1)F-1

> <s_i_glide_gridfile>
glide-grid_1

> <i_i_glide_lignum>
960

> <i_i_glide_rotatable_bonds>
5

> <r_i_docking_score>
-7.59454460779732

> <r_i_glide_ligand_efficiency>
-0.244985309928946

> <r_i_glide_ligand_efficiency_sa>
-0.769592111849976

> <r_i_glide_ligand_efficiency_ln>
-1.71280255389893

> <r_i_glide_gscore>
-7.60074460779732

> <r_i_glide_lipo>
-2.35893416202101

> <r_i_glide_hbond>
-0.513644572771662

> <r_i_glide_metal>
0

> <r_i_glide_rewards>
-1.8834106906072

> <r_i_glide_evdw>
-37.1031913757324

> <r_i_glide_ecoul>
-8.06640148162842

> <r_i_glide_erotb>
0.301657576920608

> <r_i_glide_esite>
-0.0812929682871705

> <r_i_glide_emodel>
-68.3866207284889

> <r_i_glide_energy>
-45.1695928573608

> <r_i_glide_einternal>
6.82727718353271

> <i_i_glide_confnum>
88

> <i_i_glide_posenum>
146

> <r_i_glide_eff_state_penalty>
0.0062

> <r_lp_tautomer_probability>
1

> <s_m_subgroup_title>
glide-dock_SP_top1262_2_pv

> <s_m_subgroupid>
glide-dock_SP_top1262_2_pv

> <b_m_subgroup_collapsed>
0

$$$$
O=C(C1=CC(CCCC2)=C2S1)NC3=CC=CC(C(N=C4NC5=CC=C([C@H]6N(C)CCN(C)C6=O)C=C5)=CN(...
                    3D
 Schrodinger Suite 2021-3.
  0  0  0     0  0            999 V3000
M  V30 BEGIN CTAB
M  V30 COUNTS 79 84 0 0 0
M  V30 BEGIN ATOM
M  V30 1 C  18.1259 38.1939 84.5065 0
M  V30 2 C  17.0703 38.6184 85.5613 0
M  V30 3 C  16.8833 37.5834 86.6844 0
M  V30 4 C  18.1683 37.3725 87.5020 0
M  V30 5 C  19.3219 37.1622 86.5355 0
M  V30 6 C  19.3279 37.5421 85.1863 0
M  V30 7 S  20.8324 36.4729 87.0248 0
M  V30 8 C  21.5005 36.6977 85.4316 0
M  V30 9 C  20.5693 37.2965 84.5812 0
M  V30 10 C  22.8832 36.3565 85.1927 0
M  V30 11 O  23.6375 36.0615 86.1138 0
M  V30 12 N  23.2892 36.3599 83.9112 0
M  V30 13 C  24.6341 36.2026 83.5392 0
M  V30 14 C  24.9278 35.0419 82.8429 0
M  V30 15 C  26.2350 34.7570 82.4909 0
M  V30 16 C  27.2559 35.6207 82.8439 0
M  V30 17 C  27.0156 36.8136 83.5452 0
M  V30 18 C  25.6603 37.1313 83.8532 0
M  V30 19 C  25.2649 38.4878 84.4456 0
M  V30 20 C  28.2184 37.6475 83.9024 0
M  V30 21 N  28.1400 38.4529 85.0147 0
M  V30 22 C  29.1702 39.1503 85.3748 0
M  V30 23 C  30.5036 39.1115 84.6908 0
M  V30 24 O  31.4726 39.7849 85.0644 0
M  V30 25 N  30.5417 38.2541 83.6072 0
M  V30 26 C  29.4115 37.5561 83.2442 0
M  V30 27 C  31.7930 38.1335 82.8501 0
M  V30 28 N  29.0896 40.0350 86.4451 0
M  V30 29 C  28.0410 40.3615 87.3226 0
M  V30 30 C  28.0198 41.6585 87.8323 0
M  V30 31 C  27.0044 42.0613 88.6921 0
M  V30 32 C  25.9971 41.1652 89.0614 0
M  V30 33 C  26.0388 39.8500 88.5802 0
M  V30 34 C  27.0549 39.4510 87.7158 0
M  V30 35 C  24.8840 41.6214 90.0272 0 CFG=1
M  V30 36 N  23.5281 41.1534 89.6530 0 CFG=2
M  V30 37 C  23.1192 41.6989 88.3562 0
M  V30 38 C  22.5493 41.5617 90.6510 0
M  V30 39 C  22.8487 40.8245 91.9664 0
M  V30 40 N  24.2814 40.8175 92.3297 0
M  V30 41 C  24.5953 40.2536 93.6431 0
M  V30 42 C  25.2968 41.1565 91.4751 0
M  V30 43 O  26.4792 41.1374 91.8393 0
M  V30 44 H  17.6851 37.4930 83.7985 0
M  V30 45 H  18.4345 39.0557 83.9164 0
M  V30 46 H  17.3716 39.5579 86.0258 0
M  V30 47 H  16.1065 38.8164 85.0858 0
M  V30 48 H  16.0836 37.9111 87.3456 0
M  V30 49 H  16.5525 36.6341 86.2670 0
M  V30 50 H  18.3591 38.2579 88.1079 0
M  V30 51 H  18.0530 36.5328 88.1869 0
M  V30 52 H  20.7730 37.5580 83.5543 0
M  V30 53 H  22.6098 36.4819 83.1770 0
M  V30 54 H  24.1352 34.3573 82.5855 0
M  V30 55 H  26.4855 33.8530 81.9631 0
M  V30 56 H  28.2551 35.3111 82.5797 0
M  V30 57 H  25.2516 38.4429 85.5324 0
M  V30 58 H  25.9241 39.2905 84.1138 0
M  V30 59 H  24.2779 38.8015 84.1061 0
M  V30 60 H  29.5928 36.9356 82.3774 0
M  V30 61 H  32.6470 38.6118 83.3380 0
M  V30 62 H  32.0458 37.0791 82.7113 0
M  V30 63 H  31.6771 38.5813 81.8590 0
M  V30 64 H  29.9053 40.6225 86.5547 0
M  V30 65 H  28.7811 42.3727 87.5515 0
M  V30 66 H  27.0036 43.0734 89.0666 0
M  V30 67 H  25.2782 39.1423 88.8693 0
M  V30 68 H  27.0703 38.4310 87.3643 0
M  V30 69 H  24.8938 42.7151 90.0484 0
M  V30 70 H  22.1271 41.3400 88.0817 0
M  V30 71 H  23.0904 42.7896 88.3632 0
M  V30 72 H  23.7959 41.3831 87.5610 0
M  V30 73 H  21.5331 41.3511 90.3187 0
M  V30 74 H  22.6483 42.6405 90.7991 0
M  V30 75 H  22.5320 39.7865 91.8601 0
M  V30 76 H  22.2572 41.2721 92.7644 0
M  V30 77 H  25.6519 40.3040 93.9097 0
M  V30 78 H  24.0448 40.7878 94.4160 0
M  V30 79 H  24.2964 39.2046 93.6814 0
M  V30 END ATOM
M  V30 BEGIN BOND
M  V30 1 1 1 2
M  V30 2 1 1 6
M  V30 3 1 1 44
M  V30 4 1 1 45
M  V30 5 1 2 3
M  V30 6 1 2 46
M  V30 7 1 2 47
M  V30 8 1 3 4
M  V30 9 1 3 48
M  V30 10 1 3 49
M  V30 11 1 4 5
M  V30 12 1 4 50
M  V30 13 1 4 51
M  V30 14 2 5 6
M  V30 15 1 5 7
M  V30 16 1 6 9
M  V30 17 1 7 8
M  V30 18 2 8 9
M  V30 19 1 8 10
M  V30 20 1 9 52
M  V30 21 2 10 11
M  V30 22 1 10 12
M  V30 23 1 12 13
M  V30 24 1 12 53
M  V30 25 2 13 14
M  V30 26 1 13 18
M  V30 27 1 14 15
M  V30 28 1 14 54
M  V30 29 2 15 16
M  V30 30 1 15 55
M  V30 31 1 16 17
M  V30 32 1 16 56
M  V30 33 2 17 18
M  V30 34 1 17 20
M  V30 35 1 18 19
M  V30 36 1 19 57
M  V30 37 1 19 58
M  V30 38 1 19 59
M  V30 39 1 20 21
M  V30 40 2 20 26
M  V30 41 2 21 22
M  V30 42 1 22 23
M  V30 43 1 22 28
M  V30 44 2 23 24
M  V30 45 1 23 25
M  V30 46 1 25 26
M  V30 47 1 25 27
M  V30 48 1 26 60
M  V30 49 1 27 61
M  V30 50 1 27 62
M  V30 51 1 27 63
M  V30 52 1 28 29
M  V30 53 1 28 64
M  V30 54 2 29 30
M  V30 55 1 29 34
M  V30 56 1 30 31
M  V30 57 1 30 65
M  V30 58 2 31 32
M  V30 59 1 31 66
M  V30 60 1 32 33
M  V30 61 1 32 35
M  V30 62 2 33 34
M  V30 63 1 33 67
M  V30 64 1 34 68
M  V30 65 1 35 36
M  V30 66 1 35 42
M  V30 67 1 35 69
M  V30 68 1 36 37
M  V30 69 1 36 38
M  V30 70 1 37 70
M  V30 71 1 37 71
M  V30 72 1 37 72
M  V30 73 1 38 39
M  V30 74 1 38 73
M  V30 75 1 38 74
M  V30 76 1 39 40
M  V30 77 1 39 75
M  V30 78 1 39 76
M  V30 79 1 40 41
M  V30 80 1 40 42
M  V30 81 1 41 77
M  V30 82 1 41 78
M  V30 83 1 41 79
M  V30 84 2 42 43
M  V30 END BOND
M  V30 END CTAB
M  END
> <s_m_entry_id>
936

> <s_m_entry_name>
result.4448

> <s_m_Source_Path>
D:\OneDrive - zju.edu.cn\DOC\A-Finished\LCK_VS\Planet\LCK-8617

> <s_m_Source_File>
glide-dock_SP_top1262_2_pv.maegz

> <i_m_Source_File_Index>
936

> <PLANET_affinity>
8.436

> <i_lp_mmshare_version>
54117

> <i_f3d_flags>
0

> <s_epik_input>
W0NIMl0xW0NIMl1bQ0gyXVtDSDJdYyhjMTIpW2NIXWMoczIpQyg9TylbTkhdYzNbY0hdW2NIXVtjSF1jKGMzW0NIM10pLWM0bmMoYyg9TyluKFtjSF00KVtDSDNdKVtOSF1jNVtjSF1bY0hdYyhbY0hdW2NIXTUpW0NASF02TihbQ0gzXSlbQ0gyXVtDSDJdTihbQ0gzXSlDNj1P

> <s_epik_cmdline>
J2VwaWtfcHl0aG9uJywgJy1waCcsICc3LjAnLCAnLXRuJywgJzgnLCAnLW1hJywgJzUwMCcsICctaW1hZScsICc8aW5maWxlLm1hZT4nLCAnLW9tYWUnLCAnPG91dGZpbGUubWFlPic=

> <r_epik_Ionization_Penalty>
  0.0733

> <r_epik_Ionization_Penalty_Charging>
  0.0000

> <r_epik_Ionization_Penalty_Neutral>
  0.0733

> <r_epik_State_Penalty>
  0.1886

> <r_epik_Charging_Adjusted_Penalty>
0.188615

> <i_epik_Tot_Q>
0

> <i_epik_Tot_abs_Q>
0

> <s_lp_Force_Field>
S-OPLS

> <r_lp_Energy>
108.791

> <b_lp_Chiralities_Consistent>
1

> <s_lp_Variant>
O=C(C1=CC(CCCC2)=C2S1)NC3=CC=CC(C(N=C4NC5=CC=C([C@H]6N(C)CCN(C)C6=O)C=C5)=CN(...-1

> <s_i_glide_gridfile>
glide-grid_1

> <i_i_glide_lignum>
864

> <i_i_glide_rotatable_bonds>
7

> <r_i_docking_score>
-7.59440543363589

> <r_i_glide_ligand_efficiency>
-0.176614079851997

> <r_i_glide_ligand_efficiency_sa>
-0.618749424014727

> <r_i_glide_ligand_efficiency_ln>
-1.59506117136385

> <r_i_glide_gscore>
-7.78300543363589

> <r_i_glide_lipo>
-4.24253532224366

> <r_i_glide_hbond>
0

> <r_i_glide_metal>
0

> <r_i_glide_rewards>
-0.979888841841085

> <r_i_glide_evdw>
-54.6403121948242

> <r_i_glide_ecoul>
-0.846885442733765

> <r_i_glide_erotb>
0.298467156600129

> <r_i_glide_esite>
0

> <r_i_glide_emodel>
-79.0928851842268

> <r_i_glide_energy>
-55.487197637558

> <r_i_glide_einternal>
6.03016710281372

> <i_i_glide_confnum>
13

> <i_i_glide_posenum>
168

> <r_i_glide_eff_state_penalty>
0.1886

> <r_lp_tautomer_probability>
1

> <s_m_subgroup_title>
glide-dock_SP_top1262_2_pv

> <s_m_subgroupid>
glide-dock_SP_top1262_2_pv

> <b_m_subgroup_collapsed>
0

$$$$
N#CC1=CC(C2=NC(NC3=CC=C(N4CCOCC4)C=C3)=NC=C2)=CC=C1OC5CCOCC5
                    3D
 Schrodinger Suite 2021-3.
  0  0  0     0  0            999 V3000
M  V30 BEGIN CTAB
M  V30 COUNTS 61 65 0 0 0
M  V30 BEGIN ATOM
M  V30 1 C  26.2236 41.9453 89.2575 0
M  V30 2 C  27.3768 42.3462 90.1978 0
M  V30 3 O  26.8675 42.6598 91.4933 0
M  V30 4 C  26.1690 41.5945 92.1369 0
M  V30 5 C  24.9513 41.1843 91.2827 0
M  V30 6 C  25.4197 40.7826 89.8755 0
M  V30 7 O  24.2895 40.4302 89.0728 0
M  V30 8 C  24.4192 39.5824 87.9809 0
M  V30 9 C  25.6507 39.0836 87.5348 0
M  V30 10 C  25.7199 38.2061 86.4609 0
M  V30 11 C  24.5670 37.7900 85.7733 0
M  V30 12 C  23.3382 38.3061 86.2073 0
M  V30 13 C  23.2564 39.1851 87.2947 0
M  V30 14 C  21.9387 39.6525 87.7110 0
M  V30 15 N  20.8930 40.0190 88.0428 0
M  V30 16 C  24.6636 36.8425 84.6114 0
M  V30 17 N  25.9075 36.6744 84.0901 0
M  V30 18 C  26.0643 35.8588 83.0224 0
M  V30 19 N  25.0584 35.1595 82.4414 0
M  V30 20 C  23.8180 35.3177 82.9713 0
M  V30 21 C  23.5702 36.1524 84.0639 0
M  V30 22 N  27.3362 35.7029 82.4589 0
M  V30 23 C  28.6114 36.1916 82.7960 0
M  V30 24 C  29.7075 35.5545 82.2179 0
M  V30 25 C  31.0023 35.9829 82.4922 0
M  V30 26 C  31.2247 37.0590 83.3575 0
M  V30 27 C  30.1254 37.7119 83.9200 0
M  V30 28 C  28.8303 37.2883 83.6390 0
M  V30 29 N  32.5156 37.4788 83.6455 0
M  V30 30 C  33.6081 37.5581 82.6641 0
M  V30 31 C  34.1491 39.0039 82.5625 0
M  V30 32 O  34.5479 39.4753 83.8473 0
M  V30 33 C  33.4827 39.4546 84.7939 0
M  V30 34 C  32.9554 38.0119 84.9456 0
M  V30 35 H  25.5773 42.8144 89.1272 0
M  V30 36 H  26.6297 41.6750 88.2809 0
M  V30 37 H  27.8877 43.2275 89.8063 0
M  V30 38 H  28.1273 41.5572 90.2615 0
M  V30 39 H  25.8417 41.9340 93.1203 0
M  V30 40 H  26.8418 40.7501 92.3079 0
M  V30 41 H  24.4312 40.3586 91.7682 0
M  V30 42 H  24.2751 42.0366 91.2273 0
M  V30 43 H  26.0618 39.9108 90.0111 0
M  V30 44 H  26.5790 39.3551 88.0097 0
M  V30 45 H  26.6951 37.8417 86.1721 0
M  V30 46 H  22.4298 38.0235 85.6904 0
M  V30 47 H  23.0178 34.7577 82.5082 0
M  V30 48 H  22.5717 36.2410 84.4602 0
M  V30 49 H  27.3238 35.1750 81.5860 0
M  V30 50 H  29.5648 34.7169 81.5485 0
M  V30 51 H  31.8313 35.4613 82.0359 0
M  V30 52 H  30.2670 38.5660 84.5630 0
M  V30 53 H  28.0192 37.8500 84.0685 0
M  V30 54 H  34.4046 36.8702 82.9512 0
M  V30 55 H  33.2640 37.2407 81.6795 0
M  V30 56 H  33.4015 39.6723 82.1309 0
M  V30 57 H  35.0115 39.0327 81.8968 0
M  V30 58 H  32.6847 40.1359 84.4901 0
M  V30 59 H  33.8574 39.8181 85.7505 0
M  V30 60 H  32.1507 37.9757 85.6796 0
M  V30 61 H  33.7443 37.3714 85.3431 0
M  V30 END ATOM
M  V30 BEGIN BOND
M  V30 1 1 1 2
M  V30 2 1 1 6
M  V30 3 1 1 35
M  V30 4 1 1 36
M  V30 5 1 2 3
M  V30 6 1 2 37
M  V30 7 1 2 38
M  V30 8 1 3 4
M  V30 9 1 4 5
M  V30 10 1 4 39
M  V30 11 1 4 40
M  V30 12 1 5 6
M  V30 13 1 5 41
M  V30 14 1 5 42
M  V30 15 1 6 7
M  V30 16 1 6 43
M  V30 17 1 7 8
M  V30 18 2 8 9
M  V30 19 1 8 13
M  V30 20 1 9 10
M  V30 21 1 9 44
M  V30 22 2 10 11
M  V30 23 1 10 45
M  V30 24 1 11 12
M  V30 25 1 11 16
M  V30 26 2 12 13
M  V30 27 1 12 46
M  V30 28 1 13 14
M  V30 29 3 14 15
M  V30 30 2 16 17
M  V30 31 1 16 21
M  V30 32 1 17 18
M  V30 33 2 18 19
M  V30 34 1 18 22
M  V30 35 1 19 20
M  V30 36 2 20 21
M  V30 37 1 20 47
M  V30 38 1 21 48
M  V30 39 1 22 23
M  V30 40 1 22 49
M  V30 41 2 23 24
M  V30 42 1 23 28
M  V30 43 1 24 25
M  V30 44 1 24 50
M  V30 45 2 25 26
M  V30 46 1 25 51
M  V30 47 1 26 27
M  V30 48 1 26 29
M  V30 49 2 27 28
M  V30 50 1 27 52
M  V30 51 1 28 53
M  V30 52 1 29 30
M  V30 53 1 29 34
M  V30 54 1 30 31
M  V30 55 1 30 54
M  V30 56 1 30 55
M  V30 57 1 31 32
M  V30 58 1 31 56
M  V30 59 1 31 57
M  V30 60 1 32 33
M  V30 61 1 33 34
M  V30 62 1 33 58
M  V30 63 1 33 59
M  V30 64 1 34 60
M  V30 65 1 34 61
M  V30 END BOND
M  V30 END CTAB
M  END
> <s_m_entry_id>
938

> <s_m_entry_name>
result.3538

> <s_m_Source_Path>
D:\OneDrive - zju.edu.cn\DOC\A-Finished\LCK_VS\Planet\LCK-8617

> <s_m_Source_File>
glide-dock_SP_top1262_2_pv.maegz

> <i_m_Source_File_Index>
938

> <PLANET_affinity>
8.061

> <i_lp_mmshare_version>
54117

> <i_f3d_flags>
0

> <s_epik_input>
W0NIMl0xW0NIMl1PW0NIMl1bQ0gyXVtDSF0xT2MyW2NIXVtjSF1jKFtjSF1jMkMjTiktYzNuYyhuW2NIXVtjSF0zKVtOSF1jNFtjSF1bY0hdYyhbY0hdW2NIXTQpTjVbQ0gyXVtDSDJdT1tDSDJdW0NIMl01

> <s_epik_cmdline>
J2VwaWtfcHl0aG9uJywgJy1waCcsICc3LjAnLCAnLXRuJywgJzgnLCAnLW1hJywgJzUwMCcsICctaW1hZScsICc8aW5maWxlLm1hZT4nLCAnLW9tYWUnLCAnPG91dGZpbGUubWFlPic=

> <r_epik_Ionization_Penalty>
  0.0005

> <r_epik_Ionization_Penalty_Charging>
  0.0000

> <r_epik_Ionization_Penalty_Neutral>
  0.0005

> <r_epik_State_Penalty>
  0.0002

> <r_epik_Charging_Adjusted_Penalty>
0.000221378

> <i_epik_Tot_Q>
0

> <i_epik_Tot_abs_Q>
0

> <s_lp_Force_Field>
S-OPLS

> <r_lp_Energy>
54.1832

> <b_lp_Chiralities_Consistent>
1

> <s_lp_Variant>
N#CC1=CC(C2=NC(NC3=CC=C(N4CCOCC4)C=C3)=NC=C2)=CC=C1OC5CCOCC5-1

> <s_i_glide_gridfile>
glide-grid_1

> <i_i_glide_lignum>
1235

> <i_i_glide_rotatable_bonds>
6

> <r_i_docking_score>
-7.59307918842834

> <r_i_glide_ligand_efficiency>
-0.223325858483187

> <r_i_glide_ligand_efficiency_sa>
-0.723489085822128

> <r_i_glide_ligand_efficiency_ln>
-1.67752417138099

> <r_i_glide_gscore>
-7.59327918842834

> <r_i_glide_lipo>
-2.66332810969589

> <r_i_glide_hbond>
-0.616629159239997

> <r_i_glide_metal>
0

> <r_i_glide_rewards>
-1.70534266013949

> <r_i_glide_evdw>
-42.2809562683105

> <r_i_glide_ecoul>
-5.91350984573364

> <r_i_glide_erotb>
0.403401438923556

> <r_i_glide_esite>
-0.0103064080009524

> <r_i_glide_emodel>
-70.2172233768435

> <r_i_glide_energy>
-48.1944661140442

> <r_i_glide_einternal>
2.24537754058838

> <i_i_glide_confnum>
312

> <i_i_glide_posenum>
305

> <r_i_glide_eff_state_penalty>
0.0002

> <r_lp_tautomer_probability>
1

> <s_m_subgroup_title>
glide-dock_SP_top1262_2_pv

> <s_m_subgroupid>
glide-dock_SP_top1262_2_pv

> <b_m_subgroup_collapsed>
0

$$$$
O=C(C1=CC=C(NC2=C3N=CN(C4=CC=CC(F)=C4)C3=NC(N[C@H]5CC[C@H](N)CC5)=N2)C=C1)N6C...
                    3D
 Schrodinger Suite 2021-3.
  0  0  0     0  0            999 V3000
M  V30 BEGIN CTAB
M  V30 COUNTS 73 78 0 0 0
M  V30 BEGIN ATOM
M  V30 1 C  33.2181 34.3042 84.0328 0
M  V30 2 C  33.6796 33.1467 83.1215 0
M  V30 3 C  35.2108 33.0888 82.9929 0
M  V30 4 C  35.7799 34.4666 82.5999 0
M  V30 5 C  35.2763 35.5940 83.5264 0
M  V30 6 N  33.7972 35.5533 83.4928 0
M  V30 7 C  33.0795 36.6640 83.1520 0
M  V30 8 O  33.6154 37.7476 82.9163 0
M  V30 9 C  31.5696 36.5943 83.0774 0
M  V30 10 C  30.9163 35.5566 82.4041 0
M  V30 11 C  29.5297 35.4937 82.3777 0
M  V30 12 C  28.7645 36.4593 83.0228 0
M  V30 13 C  29.4159 37.5422 83.6278 0
M  V30 14 C  30.8047 37.6114 83.6525 0
M  V30 15 N  27.3669 36.2793 83.0246 0
M  V30 16 C  26.3731 36.7575 83.8914 0
M  V30 17 N  26.7182 37.6302 84.8664 0
M  V30 18 C  25.7605 38.1420 85.6751 0
M  V30 19 N  26.1206 39.1730 86.5583 0
M  V30 20 C  27.4054 39.8694 86.4044 0 CFG=1
M  V30 21 C  27.3521 40.8187 85.1818 0
M  V30 22 C  28.7092 41.5243 84.9766 0
M  V30 23 C  29.1788 42.2634 86.2534 0 CFG=2
M  V30 24 N  30.6239 42.7497 86.0436 0 CHG=1
M  V30 25 C  29.1123 41.3754 87.5274 0
M  V30 26 C  27.7514 40.6530 87.6837 0
M  V30 27 N  24.4468 37.8023 85.6683 0
M  V30 28 C  24.1295 36.9116 84.7154 0
M  V30 29 C  25.0345 36.3509 83.7747 0
M  V30 30 N  22.8981 36.3762 84.3865 0
M  V30 31 C  23.1365 35.5568 83.2977 0
M  V30 32 N  24.3898 35.5027 82.9101 0
M  V30 33 C  21.6599 36.6356 85.0053 0
M  V30 34 C  21.4727 36.3242 86.3565 0
M  V30 35 C  20.2605 36.6229 86.9800 0
M  V30 36 C  19.2408 37.2462 86.2593 0
M  V30 37 C  19.4245 37.5564 84.9117 0
M  V30 38 F  18.4370 38.1623 84.2138 0
M  V30 39 C  20.6291 37.2454 84.2828 0
M  V30 40 H  32.1383 34.3243 84.1753 0
M  V30 41 H  33.6354 34.1688 85.0326 0
M  V30 42 H  33.2275 33.2423 82.1345 0
M  V30 43 H  33.3100 32.2049 83.5259 0
M  V30 44 H  35.6411 32.7764 83.9482 0
M  V30 45 H  35.5047 32.3354 82.2591 0
M  V30 46 H  36.8704 34.4314 82.6273 0
M  V30 47 H  35.5191 34.6978 81.5656 0
M  V30 48 H  35.6939 36.5599 83.2397 0
M  V30 49 H  35.5899 35.3947 84.5514 0
M  V30 50 H  31.4777 34.7825 81.8998 0
M  V30 51 H  29.0572 34.6656 81.8705 0
M  V30 52 H  28.8694 38.3510 84.0789 0
M  V30 53 H  31.2837 38.4507 84.1420 0
M  V30 54 H  27.0335 35.6048 82.3535 0
M  V30 55 H  25.3408 39.6747 86.9498 0
M  V30 56 H  28.1826 39.1211 86.2327 0
M  V30 57 H  27.0946 40.2707 84.2751 0
M  V30 58 H  26.5654 41.5621 85.3153 0
M  V30 59 H  29.4360 40.7525 84.7125 0
M  V30 60 H  28.6967 42.1933 84.1122 0
M  V30 61 H  28.5207 43.1241 86.3991 0
M  V30 62 H  31.2606 41.9669 86.0655 0
M  V30 63 H  30.7227 43.1956 85.1315 0
M  V30 64 H  29.8743 40.5951 87.4636 0
M  V30 65 H  29.3795 41.9382 88.4235 0
M  V30 66 H  26.9684 41.3827 87.9029 0
M  V30 67 H  27.7900 39.9755 88.5402 0
M  V30 68 H  22.3170 35.0111 82.8466 0
M  V30 69 H  22.2634 35.8560 86.9255 0
M  V30 70 H  20.1132 36.3774 88.0225 0
M  V30 71 H  18.3049 37.4880 86.7403 0
M  V30 72 H  20.7635 37.5066 83.2438 0
M  V30 73 H  30.8909 43.4108 86.7566 0
M  V30 END ATOM
M  V30 BEGIN BOND
M  V30 1 1 1 2
M  V30 2 1 1 6
M  V30 3 1 1 40
M  V30 4 1 1 41
M  V30 5 1 2 3
M  V30 6 1 2 42
M  V30 7 1 2 43
M  V30 8 1 3 4
M  V30 9 1 3 44
M  V30 10 1 3 45
M  V30 11 1 4 5
M  V30 12 1 4 46
M  V30 13 1 4 47
M  V30 14 1 5 6
M  V30 15 1 5 48
M  V30 16 1 5 49
M  V30 17 1 6 7
M  V30 18 2 7 8
M  V30 19 1 7 9
M  V30 20 2 9 10
M  V30 21 1 9 14
M  V30 22 1 10 11
M  V30 23 1 10 50
M  V30 24 2 11 12
M  V30 25 1 11 51
M  V30 26 1 12 13
M  V30 27 1 12 15
M  V30 28 2 13 14
M  V30 29 1 13 52
M  V30 30 1 14 53
M  V30 31 1 15 16
M  V30 32 1 15 54
M  V30 33 2 16 17
M  V30 34 1 16 29
M  V30 35 1 17 18
M  V30 36 1 18 19
M  V30 37 2 18 27
M  V30 38 1 19 20
M  V30 39 1 19 55
M  V30 40 1 20 21
M  V30 41 1 20 26
M  V30 42 1 20 56
M  V30 43 1 21 22
M  V30 44 1 21 57
M  V30 45 1 21 58
M  V30 46 1 22 23
M  V30 47 1 22 59
M  V30 48 1 22 60
M  V30 49 1 23 24
M  V30 50 1 23 25
M  V30 51 1 23 61
M  V30 52 1 24 62
M  V30 53 1 24 63
M  V30 54 1 24 73
M  V30 55 1 25 26
M  V30 56 1 25 64
M  V30 57 1 25 65
M  V30 58 1 26 66
M  V30 59 1 26 67
M  V30 60 1 27 28
M  V30 61 2 28 29
M  V30 62 1 28 30
M  V30 63 1 29 32
M  V30 64 1 30 31
M  V30 65 1 30 33
M  V30 66 2 31 32
M  V30 67 1 31 68
M  V30 68 2 33 34
M  V30 69 1 33 39
M  V30 70 1 34 35
M  V30 71 1 34 69
M  V30 72 2 35 36
M  V30 73 1 35 70
M  V30 74 1 36 37
M  V30 75 1 36 71
M  V30 76 1 37 38
M  V30 77 2 37 39
M  V30 78 1 39 72
M  V30 END BOND
M  V30 END CTAB
M  END
> <s_m_entry_id>
939

> <s_m_entry_name>
result.2242

> <s_m_Source_Path>
D:\OneDrive - zju.edu.cn\DOC\A-Finished\LCK_VS\Planet\LCK-8617

> <s_m_Source_File>
glide-dock_SP_top1262_2_pv.maegz

> <i_m_Source_File_Index>
939

> <PLANET_affinity>
9.038

> <i_lp_mmshare_version>
54117

> <i_f3d_flags>
0

> <s_epik_input>
W0NIMl0xW0NIMl1bQ0gyXVtDSDJdW0NIMl1OMUMoPU8pYzJbY0hdW2NIXWMoW2NIXVtjSF0yKVtOSF1jKG5jKG4zKVtOSF1bQ0BIXTRbQ0gyXVtDSDJdW0NASF0oW05IMl0pW0NIMl1bQ0gyXTQpYyhjMzUpbltjSF1uNS1jNltjSF1bY0hdW2NIXWMoRilbY0hdNg==

> <s_epik_cmdline>
J2VwaWtfcHl0aG9uJywgJy1waCcsICc3LjAnLCAnLXRuJywgJzgnLCAnLW1hJywgJzUwMCcsICctaW1hZScsICc8aW5maWxlLm1hZT4nLCAnLW9tYWUnLCAnPG91dGZpbGUubWFlPic=

> <r_epik_Ionization_Penalty>
  0.0010

> <r_epik_Ionization_Penalty_Charging>
  0.0002

> <r_epik_Ionization_Penalty_Neutral>
  0.0008

> <r_epik_State_Penalty>
  0.0000

> <r_epik_Charging_Adjusted_Penalty>
0.000233473

> <i_epik_Tot_Q>
1

> <i_epik_Tot_abs_Q>
1

> <s_lp_Force_Field>
S-OPLS

> <r_lp_Energy>
57.9544

> <b_lp_Chiralities_Consistent>
1

> <s_lp_Variant>
O=C(C1=CC=C(NC2=C3N=CN(C4=CC=CC(F)=C4)C3=NC(N[C@H]5CC[C@H](N)CC5)=N2)C=C1)N6C...-1

> <s_i_glide_gridfile>
glide-grid_1

> <i_i_glide_lignum>
500

> <i_i_glide_rotatable_bonds>
7

> <r_i_docking_score>
-7.59280938736965

> <r_i_glide_ligand_efficiency>
-0.194687420188965

> <r_i_glide_ligand_efficiency_sa>
-0.660226206349467

> <r_i_glide_ligand_efficiency_ln>
-1.6281138673638

> <r_i_glide_gscore>
-7.59280938736965

> <r_i_glide_lipo>
-2.51583616063661

> <r_i_glide_hbond>
-0.156329364245321

> <r_i_glide_metal>
0

> <r_i_glide_rewards>
-1.58904937139181

> <r_i_glide_evdw>
-51.541389465332

> <r_i_glide_ecoul>
-8.00389862060547

> <r_i_glide_erotb>
0.514284723368625

> <r_i_glide_esite>
-0.0682249481071073

> <r_i_glide_emodel>
-88.6553400050473

> <r_i_glide_energy>
-59.5452880859375

> <r_i_glide_einternal>
6.97464370727539

> <i_i_glide_confnum>
76

> <i_i_glide_posenum>
156

> <r_i_glide_eff_state_penalty>
0

> <r_lp_tautomer_probability>
1

> <s_m_subgroup_title>
glide-dock_SP_top1262_2_pv

> <s_m_subgroupid>
glide-dock_SP_top1262_2_pv

> <b_m_subgroup_collapsed>
0

$$$$
O=S(C1=CC=C(NC2=NN(C(C3=C(F)C=CC=C3F)=O)C(N)=N2)C=C1)(N)=O
                    3D
 Schrodinger Suite 2021-3.
  0  0  0     0  0            999 V3000
M  V30 BEGIN CTAB
M  V30 COUNTS 39 41 0 0 0
M  V30 BEGIN ATOM
M  V30 1 O  33.8737 37.1617 83.6075 0
M  V30 2 S  32.8381 37.9414 84.2931 0
M  V30 3 O  32.7824 39.4015 84.1840 0
M  V30 4 N  32.9281 37.5564 85.9920 0
M  V30 5 C  31.2460 37.3265 83.7648 0
M  V30 6 C  31.1585 36.3330 82.7894 0
M  V30 7 C  29.9081 35.8675 82.3943 0
M  V30 8 C  28.7438 36.3817 82.9637 0
M  V30 9 C  28.8443 37.3917 83.9337 0
M  V30 10 C  30.0908 37.8595 84.3337 0
M  V30 11 N  27.5306 35.8382 82.5027 0
M  V30 12 C  26.2412 35.9709 82.9686 0
M  V30 13 N  25.8862 36.7689 83.9491 0
M  V30 14 N  24.5781 36.5364 84.1014 0
M  V30 15 C  24.2197 35.6044 83.1507 0
M  V30 16 N  25.2624 35.2500 82.4435 0
M  V30 17 N  22.9426 35.1566 82.9569 0
M  V30 18 C  23.7741 37.1521 85.1088 0
M  V30 19 O  22.7415 36.6194 85.5221 0
M  V30 20 C  24.1976 38.5007 85.6275 0
M  V30 21 C  25.3069 38.6336 86.4789 0
M  V30 22 F  26.0381 37.5566 86.8510 0
M  V30 23 C  25.6843 39.8942 86.9457 0
M  V30 24 C  24.9645 41.0259 86.5677 0
M  V30 25 C  23.8628 40.9017 85.7244 0
M  V30 26 C  23.4770 39.6455 85.2559 0
M  V30 27 F  22.3960 39.5557 84.4440 0
M  V30 28 H  32.2483 38.0481 86.5762 0
M  V30 29 H  33.0130 36.5549 86.1864 0
M  V30 30 H  32.0484 35.9177 82.3335 0
M  V30 31 H  29.8538 35.0922 81.6438 0
M  V30 32 H  27.9803 37.8441 84.3928 0
M  V30 33 H  30.1577 38.6408 85.0811 0
M  V30 34 H  27.6772 35.2722 81.6756 0
M  V30 35 H  22.6982 34.4626 82.2582 0
M  V30 36 H  22.2359 35.3380 83.6558 0
M  V30 37 H  26.5416 39.9905 87.5944 0
M  V30 38 H  25.2632 42.0020 86.9227 0
M  V30 39 H  23.3032 41.7792 85.4305 0
M  V30 END ATOM
M  V30 BEGIN BOND
M  V30 1 2 1 2
M  V30 2 2 2 3
M  V30 3 1 2 4
M  V30 4 1 2 5
M  V30 5 1 4 28
M  V30 6 1 4 29
M  V30 7 2 5 6
M  V30 8 1 5 10
M  V30 9 1 6 7
M  V30 10 1 6 30
M  V30 11 2 7 8
M  V30 12 1 7 31
M  V30 13 1 8 9
M  V30 14 1 8 11
M  V30 15 2 9 10
M  V30 16 1 9 32
M  V30 17 1 10 33
M  V30 18 1 11 12
M  V30 19 1 11 34
M  V30 20 2 12 13
M  V30 21 1 12 16
M  V30 22 1 13 14
M  V30 23 1 14 15
M  V30 24 1 14 18
M  V30 25 2 15 16
M  V30 26 1 15 17
M  V30 27 1 17 35
M  V30 28 1 17 36
M  V30 29 2 18 19
M  V30 30 1 18 20
M  V30 31 2 20 21
M  V30 32 1 20 26
M  V30 33 1 21 22
M  V30 34 1 21 23
M  V30 35 2 23 24
M  V30 36 1 23 37
M  V30 37 1 24 25
M  V30 38 1 24 38
M  V30 39 2 25 26
M  V30 40 1 25 39
M  V30 41 1 26 27
M  V30 END BOND
M  V30 END CTAB
M  END
> <s_m_entry_id>
943

> <s_m_entry_name>
result.7821

> <s_m_Source_Path>
D:\OneDrive - zju.edu.cn\DOC\A-Finished\LCK_VS\Planet\LCK-8617

> <s_m_Source_File>
glide-dock_SP_top1262_2_pv.maegz

> <i_m_Source_File_Index>
943

> <PLANET_affinity>
7.012

> <i_lp_mmshare_version>
54117

> <i_f3d_flags>
0

> <s_epik_input>
Tz1TKD1PKShbTkgyXSljMVtjSF1bY0hdYyhbY0hdW2NIXTEpW05IXWMybm4oYyhuMilbTkgyXSlDKD1PKWMzYyhGKVtjSF1bY0hdW2NIXWMzRg==

> <s_epik_cmdline>
J2VwaWtfcHl0aG9uJywgJy1waCcsICc3LjAnLCAnLXRuJywgJzgnLCAnLW1hJywgJzUwMCcsICctaW1hZScsICc8aW5maWxlLm1hZT4nLCAnLW9tYWUnLCAnPG91dGZpbGUubWFlPic=

> <r_epik_Ionization_Penalty>
  0.0006

> <r_epik_Ionization_Penalty_Charging>
  0.0000

> <r_epik_Ionization_Penalty_Neutral>
  0.0006

> <r_epik_State_Penalty>
  0.0002

> <r_epik_Charging_Adjusted_Penalty>
0.000211407

> <i_epik_Tot_Q>
0

> <i_epik_Tot_abs_Q>
0

> <s_lp_Force_Field>
S-OPLS

> <r_lp_Energy>
18.4601

> <b_lp_Chiralities_Consistent>
1

> <s_lp_Variant>
O=S(C1=CC=C(NC2=NN(C(C3=C(F)C=CC=C3F)=O)C(N)=N2)C=C1)(N)=O-1

> <s_i_glide_gridfile>
glide-grid_1

> <i_i_glide_lignum>
2703

> <i_i_glide_rotatable_bonds>
5

> <r_i_docking_score>
-7.58734741209159

> <r_i_glide_ligand_efficiency>
-0.281012867114503

> <r_i_glide_ligand_efficiency_sa>
-0.843038600417337

> <r_i_glide_ligand_efficiency_ln>
-1.76620939033674

> <r_i_glide_gscore>
-7.58754741209159

> <r_i_glide_lipo>
-1.18820343701702

> <r_i_glide_hbond>
-0.812120583393937

> <r_i_glide_metal>
0

> <r_i_glide_rewards>
-2.87479089012531

> <r_i_glide_evdw>
-36.8407020568848

> <r_i_glide_ecoul>
-7.979079246521

> <r_i_glide_erotb>
0.351879447360788

> <r_i_glide_esite>
-0.0254149590937169

> <r_i_glide_emodel>
-62.0726743405462

> <r_i_glide_energy>
-44.8197813034058

> <r_i_glide_einternal>
2.42023825645447

> <i_i_glide_confnum>
9

> <i_i_glide_posenum>
10

> <r_i_glide_eff_state_penalty>
0.0002

> <s_m_subgroup_title>
glide-dock_SP_top1262_2_pv

> <s_m_subgroupid>
glide-dock_SP_top1262_2_pv

> <b_m_subgroup_collapsed>
0

$$$$
OC(CC[C@@H]([C@@H]1C)/C2=C(C3)/C4=C(C(C)=C(/C=C5C(CC)=C(C)C(/C=C6N/C(C(C)=C\6...
                    3D
 Schrodinger Suite 2021-3.
  0  0  0     0  0            999 V3000
M  V30 BEGIN CTAB
M  V30 COUNTS 95 100 0 0 0
M  V30 BEGIN ATOM
M  V30 1 C  25.3038 40.7222 93.2586 0
M  V30 2 C  25.5395 41.0451 91.7735 0
M  V30 3 C  26.8934 41.7198 91.4859 0
M  V30 4 C  26.9893 43.1965 91.9212 0
M  V30 5 C  28.3925 43.8090 91.7234 0
M  V30 6 C  28.8672 43.9010 90.2616 0
M  V30 7 O  28.0362 44.8036 89.5371 0
M  V30 8 C  28.2233 44.7933 88.1231 0 CFG=2
M  V30 9 C  27.7544 46.1431 87.5475 0
M  V30 10 C  27.4872 43.5962 87.5034 0
M  V30 11 C  26.0845 43.3896 87.5255 0
M  V30 12 C  25.0548 44.2635 88.2272 0
M  V30 13 C  25.8005 42.2546 86.8006 0
M  V30 14 C  24.5088 41.7540 86.5140 0
M  V30 15 C  24.1926 40.5796 85.8309 0
M  V30 16 N  25.0888 39.6516 85.4169 0
M  V30 17 C  22.7794 40.1941 85.4577 0 CFG=1
M  V30 18 C  22.1921 41.0317 84.2997 0
M  V30 19 C  22.9193 38.7132 85.1186 0 CFG=2
M  V30 20 C  22.3011 37.7665 86.1807 0
M  V30 21 C  20.7493 37.8359 86.2868 0
M  V30 22 C  20.0227 37.4441 84.9820 0
M  V30 23 O  19.1521 38.2313 84.5390 0 CHG=-1
M  V30 24 O  20.3374 36.3567 84.4429 0
M  V30 25 N  27.0103 41.7382 86.4035 0
M  V30 26 C  28.0607 42.5436 86.8089 0
M  V30 27 C  29.4466 42.3562 86.5659 0
M  V30 28 C  30.0599 41.2920 85.8733 0
M  V30 29 N  29.4231 40.2178 85.3151 0 CHG=1
M  V30 30 C  31.3989 41.1121 85.6159 0
M  V30 31 C  32.5104 42.0495 86.0500 0
M  V30 32 C  31.5507 39.9104 84.8786 0
M  V30 33 C  32.8595 39.3240 84.3723 0
M  V30 34 C  33.4774 38.3447 85.3804 0
M  V30 35 C  30.3042 39.3588 84.7023 0
M  V30 36 C  29.9617 38.1618 84.0316 0
M  V30 37 C  28.6579 37.6382 83.8998 0
M  V30 38 N  27.5200 38.2198 84.4203 0
M  V30 39 C  28.2510 36.4804 83.2436 0
M  V30 40 C  29.1459 35.5206 82.4915 0
M  V30 41 C  26.8514 36.3591 83.4088 0
M  V30 42 C  26.4563 37.4362 84.1178 0
M  V30 43 C  25.0846 37.5013 84.3364 0
M  V30 44 C  24.4147 38.5681 84.9414 0
M  V30 45 C  25.7084 35.5273 83.0939 0
M  V30 46 O  25.6765 34.4891 82.4438 0
M  V30 47 C  24.5211 36.2186 83.7606 0
M  V30 48 H  24.3498 40.2147 93.4001 0
M  V30 49 H  25.2895 41.6237 93.8728 0
M  V30 50 H  26.0823 40.0627 93.6485 0
M  V30 51 H  25.4922 40.1121 91.2080 0
M  V30 52 H  24.7253 41.6669 91.3959 0
M  V30 53 H  27.6831 41.1567 91.9787 0
M  V30 54 H  27.0882 41.6469 90.4151 0
M  V30 55 H  26.2508 43.7883 91.3789 0
M  V30 56 H  26.7260 43.2765 92.9750 0
M  V30 57 H  28.4088 44.8096 92.1606 0
M  V30 58 H  29.1182 43.2307 92.2978 0
M  V30 59 H  29.8942 44.2699 90.2334 0
M  V30 60 H  28.8774 42.9093 89.8057 0
M  V30 61 H  29.2956 44.7640 87.9247 0
M  V30 62 H  27.8748 46.1660 86.4633 0
M  V30 63 H  28.3462 46.9632 87.9623 0
M  V30 64 H  26.7097 46.3498 87.7753 0
M  V30 65 H  24.5230 44.9045 87.5215 0
M  V30 66 H  25.5042 44.9116 88.9809 0
M  V30 67 H  24.3107 43.6655 88.7550 0
M  V30 68 H  23.6682 42.3507 86.8361 0
M  V30 69 H  22.1310 40.3338 86.3224 0
M  V30 70 H  22.1258 42.0874 84.5660 0
M  V30 71 H  21.1848 40.6974 84.0455 0
M  V30 72 H  22.8017 40.9569 83.3987 0
M  V30 73 H  22.4488 38.4981 84.1577 0
M  V30 74 H  22.5926 36.7370 85.9741 0
M  V30 75 H  22.7323 37.9863 87.1591 0
M  V30 76 H  20.4107 37.1501 87.0670 0
M  V30 77 H  20.4347 38.8254 86.6244 0
M  V30 78 H  27.0812 40.9018 85.8506 0
M  V30 79 H  30.1232 43.1091 86.9383 0
M  V30 80 H  33.5058 41.6251 85.9124 0
M  V30 81 H  32.4316 42.3109 87.1075 0
M  V30 82 H  32.4835 42.9831 85.4848 0
M  V30 83 H  32.7154 38.8178 83.4181 0
M  V30 84 H  33.5791 40.1140 84.1544 0
M  V30 85 H  34.4109 37.9256 85.0020 0
M  V30 86 H  32.8026 37.5144 85.5928 0
M  V30 87 H  33.6968 38.8415 86.3266 0
M  V30 88 H  30.7642 37.5916 83.5873 0
M  V30 89 H  27.4492 39.0707 84.9485 0
M  V30 90 H  28.5803 34.7044 82.0416 0
M  V30 91 H  29.8946 35.0690 83.1420 0
M  V30 92 H  29.6760 36.0182 81.6790 0
M  V30 93 H  24.1267 35.5620 84.5373 0
M  V30 94 H  23.7217 36.3572 83.0316 0
M  V30 95 H  28.4324 40.0816 85.3591 0
M  V30 END ATOM
M  V30 BEGIN BOND
M  V30 1 1 1 2
M  V30 2 1 1 48
M  V30 3 1 1 49
M  V30 4 1 1 50
M  V30 5 1 2 3
M  V30 6 1 2 51
M  V30 7 1 2 52
M  V30 8 1 3 4
M  V30 9 1 3 53
M  V30 10 1 3 54
M  V30 11 1 4 5
M  V30 12 1 4 55
M  V30 13 1 4 56
M  V30 14 1 5 6
M  V30 15 1 5 57
M  V30 16 1 5 58
M  V30 17 1 6 7
M  V30 18 1 6 59
M  V30 19 1 6 60
M  V30 20 1 7 8
M  V30 21 1 8 9
M  V30 22 1 8 10
M  V30 23 1 8 61
M  V30 24 1 9 62
M  V30 25 1 9 63
M  V30 26 1 9 64
M  V30 27 2 10 11
M  V30 28 1 10 26
M  V30 29 1 11 12
M  V30 30 1 11 13
M  V30 31 1 12 65
M  V30 32 1 12 66
M  V30 33 1 12 67
M  V30 34 2 13 14
M  V30 35 1 13 25
M  V30 36 1 14 15
M  V30 37 1 14 68
M  V30 38 2 15 16
M  V30 39 1 15 17
M  V30 40 1 16 44
M  V30 41 1 17 18
M  V30 42 1 17 19
M  V30 43 1 17 69
M  V30 44 1 18 70
M  V30 45 1 18 71
M  V30 46 1 18 72
M  V30 47 1 19 20
M  V30 48 1 19 44
M  V30 49 1 19 73
M  V30 50 1 20 21
M  V30 51 1 20 74
M  V30 52 1 20 75
M  V30 53 1 21 22
M  V30 54 1 21 76
M  V30 55 1 21 77
M  V30 56 1 22 23
M  V30 57 2 22 24
M  V30 58 1 25 26
M  V30 59 1 25 78
M  V30 60 2 26 27
M  V30 61 1 27 28
M  V30 62 1 27 79
M  V30 63 2 28 29
M  V30 64 1 28 30
M  V30 65 1 29 35
M  V30 66 1 29 95
M  V30 67 1 30 31
M  V30 68 2 30 32
M  V30 69 1 31 80
M  V30 70 1 31 81
M  V30 71 1 31 82
M  V30 72 1 32 33
M  V30 73 1 32 35
M  V30 74 1 33 34
M  V30 75 1 33 83
M  V30 76 1 33 84
M  V30 77 1 34 85
M  V30 78 1 34 86
M  V30 79 1 34 87
M  V30 80 2 35 36
M  V30 81 1 36 37
M  V30 82 1 36 88
M  V30 83 1 37 38
M  V30 84 2 37 39
M  V30 85 1 38 42
M  V30 86 1 38 89
M  V30 87 1 39 40
M  V30 88 1 39 41
M  V30 89 1 40 90
M  V30 90 1 40 91
M  V30 91 1 40 92
M  V30 92 2 41 42
M  V30 93 1 41 45
M  V30 94 1 42 43
M  V30 95 2 43 44
M  V30 96 1 43 47
M  V30 97 2 45 46
M  V30 98 1 45 47
M  V30 99 1 47 93
M  V30 100 1 47 94
M  V30 END BOND
M  V30 END CTAB
M  END
> <s_m_entry_id>
948

> <s_m_entry_name>
result.4965

> <s_m_Source_Path>
D:\OneDrive - zju.edu.cn\DOC\A-Finished\LCK_VS\Planet\LCK-8617

> <s_m_Source_File>
glide-dock_SP_top1262_2_pv.maegz

> <i_m_Source_File_Index>
948

> <PLANET_affinity>
10.913

> <i_lp_mmshare_version>
54117

> <i_f3d_flags>
0

> <s_epik_input>
W0NIM11bQ0gyXVtDSDJdW0NIMl1bQ0gyXVtDSDJdT1tDQEhdKFtDSDNdKWMoYyhjMTIpW0NIM10pYyhbbkhdMilbY0hdYzNuYyhjKGMzW0NIM10pW0NIMl1bQ0gzXSlbY0hdYzRbbkhdYzVjKGM0W0NIM10pQyg9TylbQ0gyXWM1YzZuYyhbY0hdMSlbQ0BASF0oW0NIM10pW0NAQEhdNltDSDJdW0NIMl1DKD1PKVtPSF0=

> <s_epik_cmdline>
J2VwaWtfcHl0aG9uJywgJy1waCcsICc3LjAnLCAnLXRuJywgJzgnLCAnLW1hJywgJzUwMCcsICctaW1hZScsICc8aW5maWxlLm1hZT4nLCAnLW9tYWUnLCAnPG91dGZpbGUubWFlPic=

> <r_epik_Ionization_Penalty>
  0.0037

> <r_epik_Ionization_Penalty_Charging>
  0.0037

> <r_epik_Ionization_Penalty_Neutral>
  0.0000

> <r_epik_State_Penalty>
  0.0026

> <r_epik_Charging_Adjusted_Penalty>
0.00625221

> <i_epik_Tot_Q>
0

> <i_epik_Tot_abs_Q>
2

> <s_lp_Force_Field>
S-OPLS

> <r_lp_Energy>
31.1274

> <b_lp_Chiralities_Consistent>
1

> <s_lp_Variant>
OC(CC[C@@H]([C@@H]1C)/C2=C(C3)/C4=C(C(C)=C(/C=C5C(CC)=C(C)C(/C=C6N/C(C(C)=C\6...-1

> <s_i_glide_gridfile>
glide-grid_1

> <i_i_glide_lignum>
161

> <i_i_glide_rotatable_bonds>
11

> <r_i_docking_score>
-7.58413640596307

> <r_i_glide_ligand_efficiency>
-0.161364604382193

> <r_i_glide_ligand_efficiency_sa>
-0.58233679195836

> <r_i_glide_ligand_efficiency_ln>
-1.56369187677692

> <r_i_glide_gscore>
-7.58673640596307

> <r_i_glide_lipo>
-2.92663697985913

> <r_i_glide_hbond>
-0.48

> <r_i_glide_metal>
0

> <r_i_glide_rewards>
-1.23978290380671

> <r_i_glide_evdw>
-43.273796081543

> <r_i_glide_ecoul>
-7.00970506668091

> <r_i_glide_erotb>
0.274829041782061

> <r_i_glide_esite>
0

> <r_i_glide_emodel>
-74.2638192866533

> <r_i_glide_energy>
-50.2835011482239

> <r_i_glide_einternal>
4.05260276794434

> <i_i_glide_confnum>
257

> <i_i_glide_posenum>
304

> <r_i_glide_eff_state_penalty>
0.0026

> <r_lp_tautomer_probability>
0.99995

> <s_m_subgroup_title>
glide-dock_SP_top1262_2_pv

> <s_m_subgroupid>
glide-dock_SP_top1262_2_pv

> <b_m_subgroup_collapsed>
0

$$$$
CC1=C(NS(C)(=O)=O)C=C(NC2=NC=NC(C3=CC=CC(N4C(C5=C(C=CC=C5)C4=O)=O)=C3)=C2)C=C1
                    3D
 Schrodinger Suite 2021-3.
  0  0  0     0  0            999 V3000
M  V30 BEGIN CTAB
M  V30 COUNTS 57 61 0 0 0
M  V30 BEGIN ATOM
M  V30 1 C  32.3746 40.7566 80.3268 0
M  V30 2 S  33.8635 39.6136 80.2975 0
M  V30 3 O  33.6834 38.6050 79.2498 0
M  V30 4 O  35.0784 40.4323 80.3519 0
M  V30 5 N  33.7462 38.8082 81.8672 0
M  V30 6 C  32.5765 38.1325 82.2456 0
M  V30 7 C  32.2585 36.8361 81.8028 0
M  V30 8 C  33.1680 36.0501 80.8671 0
M  V30 9 C  31.7336 38.7702 83.1604 0
M  V30 10 C  30.5808 38.1489 83.6420 0
M  V30 11 C  30.2768 36.8545 83.2078 0
M  V30 12 C  31.1031 36.2110 82.2860 0
M  V30 13 N  29.8307 38.8403 84.6056 0
M  V30 14 C  28.5399 38.6999 85.1282 0
M  V30 15 N  28.3399 39.3575 86.2977 0
M  V30 16 C  27.1280 39.2074 86.8798 0
M  V30 17 N  26.0981 38.4796 86.3874 0
M  V30 18 C  26.2857 37.8542 85.1871 0
M  V30 19 C  27.5202 37.9562 84.5167 0
M  V30 20 C  25.1061 37.0945 84.6396 0
M  V30 21 C  25.2265 36.2373 83.5326 0
M  V30 22 C  24.1219 35.5560 83.0179 0
M  V30 23 C  22.8677 35.6980 83.6087 0
M  V30 24 C  22.7178 36.5353 84.7169 0
M  V30 25 C  23.8295 37.2218 85.2197 0
M  V30 26 N  21.4590 36.7127 85.3231 0
M  V30 27 C  20.4473 37.4296 84.7564 0
M  V30 28 O  20.4302 37.9544 83.6437 0
M  V30 29 C  21.1471 36.2435 86.5659 0
M  V30 30 O  21.8551 35.5571 87.3044 0
M  V30 31 C  19.7720 36.7276 86.8422 0
M  V30 32 C  19.3580 37.4480 85.7569 0
M  V30 33 C  18.9440 36.5542 87.9511 0
M  V30 34 C  17.6826 37.1564 87.9422 0
M  V30 35 C  17.2622 37.8938 86.8291 0
M  V30 36 C  18.0976 38.0420 85.7189 0
M  V30 37 H  32.3352 41.3037 79.3855 0
M  V30 38 H  32.4825 41.4390 81.1676 0
M  V30 39 H  31.4748 40.1568 80.4431 0
M  V30 40 H  34.1419 39.3966 82.5848 0
M  V30 41 H  33.1090 34.9800 81.0767 0
M  V30 42 H  32.8832 36.2076 79.8265 0
M  V30 43 H  34.2152 36.3293 80.9940 0
M  V30 44 H  31.9864 39.7613 83.5096 0
M  V30 45 H  29.4341 36.3110 83.6033 0
M  V30 46 H  30.8564 35.2068 81.9657 0
M  V30 47 H  30.3398 39.5770 85.0703 0
M  V30 48 H  26.9711 39.7079 87.8234 0
M  V30 49 H  27.6757 37.5056 83.5526 0
M  V30 50 H  26.1793 36.0850 83.0484 0
M  V30 51 H  24.2316 34.9088 82.1609 0
M  V30 52 H  22.0224 35.1612 83.2017 0
M  V30 53 H  23.6839 37.8690 86.0721 0
M  V30 54 H  19.2618 35.9831 88.8110 0
M  V30 55 H  17.0300 37.0678 88.7981 0
M  V30 56 H  16.2860 38.3554 86.8316 0
M  V30 57 H  17.7625 38.6124 84.8658 0
M  V30 END ATOM
M  V30 BEGIN BOND
M  V30 1 1 1 2
M  V30 2 1 1 37
M  V30 3 1 1 38
M  V30 4 1 1 39
M  V30 5 2 2 3
M  V30 6 2 2 4
M  V30 7 1 2 5
M  V30 8 1 5 6
M  V30 9 1 5 40
M  V30 10 2 6 7
M  V30 11 1 6 9
M  V30 12 1 7 8
M  V30 13 1 7 12
M  V30 14 1 8 41
M  V30 15 1 8 42
M  V30 16 1 8 43
M  V30 17 2 9 10
M  V30 18 1 9 44
M  V30 19 1 10 11
M  V30 20 1 10 13
M  V30 21 2 11 12
M  V30 22 1 11 45
M  V30 23 1 12 46
M  V30 24 1 13 14
M  V30 25 1 13 47
M  V30 26 2 14 15
M  V30 27 1 14 19
M  V30 28 1 15 16
M  V30 29 2 16 17
M  V30 30 1 16 48
M  V30 31 1 17 18
M  V30 32 2 18 19
M  V30 33 1 18 20
M  V30 34 1 19 49
M  V30 35 2 20 21
M  V30 36 1 20 25
M  V30 37 1 21 22
M  V30 38 1 21 50
M  V30 39 2 22 23
M  V30 40 1 22 51
M  V30 41 1 23 24
M  V30 42 1 23 52
M  V30 43 2 24 25
M  V30 44 1 24 26
M  V30 45 1 25 53
M  V30 46 1 26 27
M  V30 47 1 26 29
M  V30 48 2 27 28
M  V30 49 1 27 32
M  V30 50 2 29 30
M  V30 51 1 29 31
M  V30 52 2 31 32
M  V30 53 1 31 33
M  V30 54 1 32 36
M  V30 55 2 33 34
M  V30 56 1 33 54
M  V30 57 1 34 35
M  V30 58 1 34 55
M  V30 59 2 35 36
M  V30 60 1 35 56
M  V30 61 1 36 57
M  V30 END BOND
M  V30 END CTAB
M  END
> <s_m_entry_id>
954

> <s_m_entry_name>
result.7955

> <s_m_Source_Path>
D:\OneDrive - zju.edu.cn\DOC\A-Finished\LCK_VS\Planet\LCK-8617

> <s_m_Source_File>
glide-dock_SP_top1262_2_pv.maegz

> <i_m_Source_File_Index>
954

> <PLANET_affinity>
7.332

> <i_lp_mmshare_version>
54117

> <i_f3d_flags>
0

> <s_epik_input>
W0NIM11TKD1PKSg9TylbTkhdYzFjKFtDSDNdKVtjSF1bY0hdYyhbY0hdMSlbTkhdYzJuW2NIXW5jKFtjSF0yKS1jM1tjSF1bY0hdW2NIXWMoW2NIXTMpTihDND1PKUMoPU8pYyhjNDUpW2NIXVtjSF1bY0hdW2NIXTU=

> <s_epik_cmdline>
J2VwaWtfcHl0aG9uJywgJy1waCcsICc3LjAnLCAnLXRuJywgJzgnLCAnLW1hJywgJzUwMCcsICctaW1hZScsICc8aW5maWxlLm1hZT4nLCAnLW9tYWUnLCAnPG91dGZpbGUubWFlPic=

> <r_epik_Ionization_Penalty>
  0.0056

> <r_epik_Ionization_Penalty_Charging>
  0.0000

> <r_epik_Ionization_Penalty_Neutral>
  0.0056

> <r_epik_State_Penalty>
  0.0041

> <r_epik_Charging_Adjusted_Penalty>
0.00408781

> <i_epik_Tot_Q>
0

> <i_epik_Tot_abs_Q>
0

> <s_lp_Force_Field>
S-OPLS

> <r_lp_Energy>
47.096

> <b_lp_Chiralities_Consistent>
1

> <s_lp_Variant>
CC1=C(NS(C)(=O)=O)C=C(NC2=NC=NC(C3=CC=CC(N4C(C5=C(C=CC=C5)C4=O)=O)=C3)=C2)C=C1-1

> <s_i_glide_gridfile>
glide-grid_1

> <i_i_glide_lignum>
2195

> <i_i_glide_rotatable_bonds>
6

> <r_i_docking_score>
-7.57809726566021

> <r_i_glide_ligand_efficiency>
-0.210502701823895

> <r_i_glide_ligand_efficiency_sa>
-0.695064606287999

> <r_i_glide_ligand_efficiency_ln>
-1.65333608683916

> <r_i_glide_gscore>
-7.58219726566021

> <r_i_glide_lipo>
-3.92271651798057

> <r_i_glide_hbond>
0

> <r_i_glide_metal>
0

> <r_i_glide_rewards>
-1.17946744540033

> <r_i_glide_evdw>
-55.7180671691895

> <r_i_glide_ecoul>
-0.559453666210175

> <r_i_glide_erotb>
0.409019868100056

> <r_i_glide_esite>
-0.0192117619883688

> <r_i_glide_emodel>
-77.2249308240703

> <r_i_glide_energy>
-56.2775208353996

> <r_i_glide_einternal>
9.09716892242432

> <i_i_glide_confnum>
292

> <i_i_glide_posenum>
284

> <r_i_glide_eff_state_penalty>
0.0041

> <r_lp_tautomer_probability>
1

> <s_m_subgroup_title>
glide-dock_SP_top1262_2_pv

> <s_m_subgroupid>
glide-dock_SP_top1262_2_pv

> <b_m_subgroup_collapsed>
0

$$$$
O=C(C1=CC(O)=C(O)C(O)=C1)O[C@@H]([C@@H]([C@@H](COC(C2=CC(O)=C(O)C(O)=C2)=O)O3...
                    3D
 Schrodinger Suite 2021-3.
  0  0  0     0  0            999 V3000
M  V30 BEGIN CTAB
M  V30 COUNTS 99 104 0 0 0
M  V30 BEGIN ATOM
M  V30 1 O  23.6512 47.4994 85.2761 0
M  V30 2 C  23.6228 46.6837 86.3787 0
M  V30 3 C  24.7760 46.0012 86.7677 0
M  V30 4 C  22.4242 46.5008 87.0802 0
M  V30 5 O  21.2834 47.1567 86.6727 0
M  V30 6 C  22.3934 45.6340 88.1826 0
M  V30 7 O  21.2276 45.3437 88.8441 0
M  V30 8 C  23.5635 45.0135 88.6110 0
M  V30 9 C  24.7513 45.1591 87.8864 0
M  V30 10 C  25.9448 44.3890 88.3157 0
M  V30 11 O  26.2841 44.2664 89.4947 0
M  V30 12 O  26.4512 43.6599 87.2891 0
M  V30 13 C  27.4132 42.6197 87.4986 0 CFG=1
M  V30 14 C  26.7115 41.2744 87.7966 0 CFG=2
M  V30 15 O  25.9533 41.3230 89.0127 0
M  V30 16 C  24.6037 41.1389 89.0346 0
M  V30 17 O  23.9314 40.8594 88.0387 0
M  V30 18 C  23.9992 41.4622 90.3648 0
M  V30 19 C  22.6707 41.8995 90.4272 0
M  V30 20 C  22.0983 42.2748 91.6424 0
M  V30 21 O  20.8192 42.7724 91.6307 0
M  V30 22 C  22.8293 42.1611 92.8316 0
M  V30 23 O  22.2516 42.4962 94.0373 0
M  V30 24 C  24.1472 41.6896 92.7837 0
M  V30 25 O  24.8854 41.5594 93.9309 0
M  V30 26 C  24.7281 41.3525 91.5600 0
M  V30 27 C  27.7507 40.1405 87.8732 0 CFG=1
M  V30 28 C  27.0932 38.7560 88.0850 0
M  V30 29 O  26.0742 38.3964 87.1479 0
M  V30 30 C  26.3701 37.9572 85.8926 0
M  V30 31 O  27.5064 37.9574 85.4129 0
M  V30 32 C  25.2077 37.3207 85.1929 0
M  V30 33 C  25.4514 36.5502 84.0493 0
M  V30 34 C  24.4185 35.8795 83.4028 0
M  V30 35 O  24.7278 35.1537 82.2848 0
M  V30 36 C  23.1067 35.9677 83.8824 0
M  V30 37 O  22.0857 35.3041 83.2436 0
M  V30 38 C  22.8425 36.7593 85.0099 0
M  V30 39 O  21.5667 36.8866 85.5021 0
M  V30 40 C  23.8853 37.4305 85.6552 0
M  V30 41 O  28.5409 40.1260 86.6848 0
M  V30 42 C  29.2922 41.2920 86.4563 0 CFG=1
M  V30 43 O  30.0337 41.1253 85.2732 0
M  V30 44 C  31.1776 40.3630 85.3509 0
M  V30 45 O  31.6719 39.9622 86.4099 0
M  V30 46 C  31.7817 40.0358 84.0122 0
M  V30 47 C  31.2449 40.5238 82.8094 0
M  V30 48 C  31.8381 40.2287 81.5814 0
M  V30 49 O  31.2831 40.7560 80.4438 0
M  V30 50 C  32.9648 39.3982 81.5281 0
M  V30 51 O  33.5529 39.0819 80.3230 0
M  V30 52 C  33.5003 38.8938 82.7197 0
M  V30 53 O  34.6007 38.0766 82.6907 0
M  V30 54 C  32.9196 39.2167 83.9453 0
M  V30 55 C  28.3297 42.4793 86.2562 0 CFG=2
M  V30 56 O  29.0488 43.6944 86.0270 0
M  V30 57 C  28.5620 44.6746 85.2079 0
M  V30 58 O  27.5391 44.5468 84.5281 0
M  V30 59 C  29.3745 45.9355 85.2342 0
M  V30 60 C  30.5311 46.0643 86.0223 0
M  V30 61 C  31.2722 47.2456 86.0156 0
M  V30 62 O  32.3931 47.3426 86.7984 0
M  V30 63 C  30.8677 48.3244 85.2235 0
M  V30 64 O  31.5887 49.4971 85.2151 0
M  V30 65 C  29.7158 48.2121 84.4386 0
M  V30 66 O  29.3066 49.2630 83.6525 0
M  V30 67 C  28.9778 47.0266 84.4445 0
M  V30 68 H  22.7423 47.7153 85.0363 0
M  V30 69 H  25.6808 46.1238 86.1876 0
M  V30 70 H  20.4917 46.6197 86.8394 0
M  V30 71 H  20.4595 45.3238 88.2511 0
M  V30 72 H  23.5202 44.3605 89.4716 0
M  V30 73 H  28.0420 42.8971 88.3483 0
M  V30 74 H  26.0465 41.0624 86.9555 0
M  V30 75 H  22.0851 42.0046 89.5228 0
M  V30 76 H  20.7030 43.5517 92.1797 0
M  V30 77 H  21.3057 42.6354 93.9645 0
M  V30 78 H  25.7530 41.1704 93.7926 0
M  V30 79 H  25.7517 41.0050 91.5461 0
M  V30 80 H  28.4195 40.3139 88.7211 0
M  V30 81 H  26.6280 38.7584 89.0712 0
M  V30 82 H  27.8432 37.9678 88.1305 0
M  V30 83 H  26.4580 36.4517 83.6640 0
M  V30 84 H  25.6493 35.2807 82.0422 0
M  V30 85 H  22.3830 34.6832 82.5664 0
M  V30 86 H  21.5080 37.4760 86.2554 0
M  V30 87 H  23.6595 38.0320 86.5259 0
M  V30 88 H  29.9438 41.4365 87.3235 0
M  V30 89 H  30.3672 41.1564 82.8148 0
M  V30 90 H  31.2823 40.1670 79.6762 0
M  V30 91 H  33.1192 39.4908 79.5687 0
M  V30 92 H  34.8699 37.9141 81.7819 0
M  V30 93 H  33.3649 38.8154 84.8471 0
M  V30 94 H  27.7322 42.2484 85.3719 0
M  V30 95 H  30.8765 45.2458 86.6421 0
M  V30 96 H  32.8146 48.1963 86.6714 0
M  V30 97 H  31.1488 50.1396 84.6499 0
M  V30 98 H  28.5303 49.0444 83.1321 0
M  V30 99 H  28.0979 46.9484 83.8207 0
M  V30 END ATOM
M  V30 BEGIN BOND
M  V30 1 1 1 2
M  V30 2 1 1 68
M  V30 3 2 2 3
M  V30 4 1 2 4
M  V30 5 1 3 9
M  V30 6 1 3 69
M  V30 7 1 4 5
M  V30 8 2 4 6
M  V30 9 1 5 70
M  V30 10 1 6 7
M  V30 11 1 6 8
M  V30 12 1 7 71
M  V30 13 2 8 9
M  V30 14 1 8 72
M  V30 15 1 9 10
M  V30 16 2 10 11
M  V30 17 1 10 12
M  V30 18 1 12 13
M  V30 19 1 13 14
M  V30 20 1 13 55
M  V30 21 1 13 73
M  V30 22 1 14 15
M  V30 23 1 14 27
M  V30 24 1 14 74
M  V30 25 1 15 16
M  V30 26 2 16 17
M  V30 27 1 16 18
M  V30 28 2 18 19
M  V30 29 1 18 26
M  V30 30 1 19 20
M  V30 31 1 19 75
M  V30 32 1 20 21
M  V30 33 2 20 22
M  V30 34 1 21 76
M  V30 35 1 22 23
M  V30 36 1 22 24
M  V30 37 1 23 77
M  V30 38 1 24 25
M  V30 39 2 24 26
M  V30 40 1 25 78
M  V30 41 1 26 79
M  V30 42 1 27 28
M  V30 43 1 27 41
M  V30 44 1 27 80
M  V30 45 1 28 29
M  V30 46 1 28 81
M  V30 47 1 28 82
M  V30 48 1 29 30
M  V30 49 2 30 31
M  V30 50 1 30 32
M  V30 51 2 32 33
M  V30 52 1 32 40
M  V30 53 1 33 34
M  V30 54 1 33 83
M  V30 55 1 34 35
M  V30 56 2 34 36
M  V30 57 1 35 84
M  V30 58 1 36 37
M  V30 59 1 36 38
M  V30 60 1 37 85
M  V30 61 1 38 39
M  V30 62 2 38 40
M  V30 63 1 39 86
M  V30 64 1 40 87
M  V30 65 1 41 42
M  V30 66 1 42 43
M  V30 67 1 42 55
M  V30 68 1 42 88
M  V30 69 1 43 44
M  V30 70 2 44 45
M  V30 71 1 44 46
M  V30 72 2 46 47
M  V30 73 1 46 54
M  V30 74 1 47 48
M  V30 75 1 47 89
M  V30 76 1 48 49
M  V30 77 2 48 50
M  V30 78 1 49 90
M  V30 79 1 50 51
M  V30 80 1 50 52
M  V30 81 1 51 91
M  V30 82 1 52 53
M  V30 83 2 52 54
M  V30 84 1 53 92
M  V30 85 1 54 93
M  V30 86 1 55 56
M  V30 87 1 55 94
M  V30 88 1 56 57
M  V30 89 2 57 58
M  V30 90 1 57 59
M  V30 91 2 59 60
M  V30 92 1 59 67
M  V30 93 1 60 61
M  V30 94 1 60 95
M  V30 95 1 61 62
M  V30 96 2 61 63
M  V30 97 1 62 96
M  V30 98 1 63 64
M  V30 99 1 63 65
M  V30 100 1 64 97
M  V30 101 1 65 66
M  V30 102 2 65 67
M  V30 103 1 66 98
M  V30 104 1 67 99
M  V30 END BOND
M  V30 END CTAB
M  END
> <s_m_entry_id>
957

> <s_m_entry_name>
result.5912

> <s_m_Source_Path>
D:\OneDrive - zju.edu.cn\DOC\A-Finished\LCK_VS\Planet\LCK-8617

> <s_m_Source_File>
glide-dock_SP_top1262_2_pv.maegz

> <i_m_Source_File_Index>
957

> <PLANET_affinity>
10.756

> <i_lp_mmshare_version>
54117

> <i_f3d_flags>
0

> <s_epik_input>
W09IXWMxYyhbT0hdKVtjSF1jKFtjSF1jMVtPSF0pQyg9TylPW0NASF0yW0NASF0oT0MoPU8pYzNbY0hdYyhbT0hdKWMoW09IXSljKFtPSF0pW2NIXTMpW0NAQEhdKFtDSDJdT0MoPU8pYzRbY0hdYyhbT0hdKWMoW09IXSljKFtPSF0pW2NIXTQpT1tDQEBIXShPQyg9TyljNVtjSF1jKFtPSF0pYyhbT0hdKWMoW09IXSlbY0hdNSlbQ0BASF0yT0MoPU8pYzZbY0hdYyhbT0hdKWMoW09IXSljKFtPSF0pW2NIXTY=

> <s_epik_cmdline>
J2VwaWtfcHl0aG9uJywgJy1waCcsICc3LjAnLCAnLXRuJywgJzgnLCAnLW1hJywgJzUwMCcsICctaW1hZScsICc8aW5maWxlLm1hZT4nLCAnLW9tYWUnLCAnPG91dGZpbGUubWFlPic=

> <r_epik_Ionization_Penalty>
  0.3657

> <r_epik_Ionization_Penalty_Charging>
  0.0000

> <r_epik_Ionization_Penalty_Neutral>
  0.3657

> <r_epik_State_Penalty>
  0.2518

> <r_epik_Charging_Adjusted_Penalty>
0.251763

> <i_epik_Tot_Q>
0

> <i_epik_Tot_abs_Q>
0

> <s_epik_Chemistry_Notes>
This compound has an ester and may undergo hydrolysis at high or low pH. This compound contains an acetal/aminal-like group ( X-CH(R)-Y where X, Y are N, S, or O) that may be acid/base labile, releasing an aldehyde.

> <s_lp_Force_Field>
S-OPLS

> <r_lp_Energy>
56.644

> <b_lp_Chiralities_Consistent>
1

> <s_lp_Variant>
O=C(C1=CC(O)=C(O)C(O)=C1)O[C@@H]([C@@H]([C@@H](COC(C2=CC(O)=C(O)C(O)=C2)=O)O3...-1

> <s_i_glide_gridfile>
glide-grid_1

> <i_i_glide_lignum>
168

> <i_i_glide_rotatable_bonds>
31

> <r_i_docking_score>
-7.5739913151987

> <r_i_glide_ligand_efficiency>
-0.113044646495503

> <r_i_glide_ligand_efficiency_sa>
-0.459136268595855

> <r_i_glide_ligand_efficiency_ln>
-1.4552235586364

> <r_i_glide_gscore>
-7.8257913151987

> <r_i_glide_lipo>
-2.3234248715407

> <r_i_glide_hbond>
0

> <r_i_glide_metal>
0

> <r_i_glide_rewards>
-0.278483358458013

> <r_i_glide_evdw>
-57.4440956115723

> <r_i_glide_ecoul>
-16.2363834381104

> <r_i_glide_erotb>
0.125898999675369

> <r_i_glide_esite>
-0.0421197885801922

> <r_i_glide_emodel>
-104.892084448856

> <r_i_glide_energy>
-73.6804790496826

> <r_i_glide_einternal>
13.4424991607666

> <i_i_glide_confnum>
856

> <i_i_glide_posenum>
371

> <r_i_glide_eff_state_penalty>
0.2518

> <s_m_subgroup_title>
glide-dock_SP_top1262_2_pv

> <s_m_subgroupid>
glide-dock_SP_top1262_2_pv

> <b_m_subgroup_collapsed>
0

$$$$
OC(CN(C1=C(I)C(C(NCC(O)CO)=O)=C(I)C(C(NCC(O)CO)=O)=C1I)C(C)=O)CN(C2=C(I)C(C(N...
                    3D
 Schrodinger Suite 2021-3.
  0  0  0     0  0            999 V3000
M  V30 BEGIN CTAB
M  V30 COUNTS 106 107 0 0 0
M  V30 BEGIN ATOM
M  V30 1 O  23.0819 35.1567 82.8809 0
M  V30 2 C  24.3319 35.6236 82.4049 0
M  V30 3 C  25.0084 36.5636 83.4322 0 CFG=1
M  V30 4 O  25.6659 35.7914 84.4233 0
M  V30 5 C  26.0388 37.5483 82.8135 0
M  V30 6 N  26.2665 38.7393 83.6417 0
M  V30 7 C  26.9536 38.7690 84.7890 0
M  V30 8 O  27.5809 37.8110 85.2394 0
M  V30 9 C  26.8261 40.0466 85.5656 0
M  V30 10 C  27.6820 41.1273 85.2939 0
M  V30 11 I  28.9659 41.1000 83.6166 0
M  V30 12 C  25.8916 40.1327 86.6144 0
M  V30 13 I  24.4712 38.5856 86.8978 0
M  V30 14 C  25.8889 41.2543 87.4634 0
M  V30 15 C  24.9498 41.3185 88.6338 0
M  V30 16 O  25.2813 40.8873 89.7387 0
M  V30 17 N  23.7809 41.9225 88.3771 0
M  V30 18 C  22.8191 42.3438 89.3972 0
M  V30 19 C  21.8202 43.4096 88.8868 0 CFG=2
M  V30 20 O  20.8852 42.7569 88.0457 0
M  V30 21 C  22.5086 44.5813 88.1330 0
M  V30 22 O  21.6833 45.7276 88.0461 0
M  V30 23 C  26.7964 42.3072 87.2431 0
M  V30 24 I  26.8284 43.9810 88.5419 0
M  V30 25 C  27.6905 42.2373 86.1560 0
M  V30 26 N  28.6995 43.2140 86.0024 0
M  V30 27 C  28.4213 44.4079 85.4034 0
M  V30 28 O  29.1018 45.4191 85.5843 0
M  V30 29 C  27.2309 44.5241 84.4445 0
M  V30 30 C  29.9066 43.0867 86.8599 0
M  V30 31 C  30.5460 41.6760 86.9992 0
M  V30 32 O  29.6829 40.7568 87.6435 0
M  V30 33 C  31.8765 41.7038 87.7907 0
M  V30 34 N  32.9216 40.7465 87.3546 0
M  V30 35 C  33.6856 40.0346 88.2360 0
M  V30 36 O  34.5770 39.2591 87.8825 0
M  V30 37 C  33.4708 40.2039 89.7438 0
M  V30 38 C  33.2852 40.7618 85.9856 0
M  V30 39 C  34.1360 41.7787 85.5175 0
M  V30 40 I  34.9652 43.1729 86.8829 0
M  V30 41 C  34.4349 41.8604 84.1470 0
M  V30 42 C  35.3321 42.9638 83.6610 0
M  V30 43 O  36.5508 42.8024 83.6059 0
M  V30 44 N  34.6947 44.1082 83.3675 0
M  V30 45 C  35.3086 45.3968 83.0265 0
M  V30 46 C  36.3667 45.3801 81.8958 0 CFG=2
M  V30 47 O  36.8354 46.7003 81.6843 0
M  V30 48 C  35.8255 44.8375 80.5591 0
M  V30 49 O  36.8828 44.6151 79.6438 0
M  V30 50 C  33.8950 40.9229 83.2441 0
M  V30 51 I  34.2913 41.1058 81.1700 0
M  V30 52 C  33.0779 39.8770 83.7254 0
M  V30 53 C  32.7729 39.7973 85.0979 0
M  V30 54 I  31.5227 38.2594 85.8397 0
M  V30 55 C  32.4613 38.8908 82.7702 0
M  V30 56 O  31.2849 39.0175 82.4434 0
M  V30 57 N  33.2489 37.8863 82.3452 0
M  V30 58 C  32.8061 36.7816 81.4770 0
M  V30 59 C  33.7474 36.4707 80.2879 0 CFG=2
M  V30 60 O  35.0415 36.1534 80.7697 0
M  V30 61 C  33.8675 37.6193 79.2611 0
M  V30 62 O  34.5631 37.2086 78.0941 0
M  V30 63 H  22.7134 34.4972 82.2768 0
M  V30 64 H  24.9812 34.7863 82.1407 0
M  V30 65 H  24.1071 36.1679 81.4901 0
M  V30 66 H  24.2289 37.1432 83.9285 0
M  V30 67 H  26.2625 36.3708 84.9138 0
M  V30 68 H  26.9773 37.0361 82.5868 0
M  V30 69 H  25.6829 37.9021 81.8466 0
M  V30 70 H  25.8377 39.5978 83.3331 0
M  V30 71 H  23.5253 42.1010 87.4171 0
M  V30 72 H  22.2828 41.4581 89.7461 0
M  V30 73 H  23.3518 42.7483 90.2603 0
M  V30 74 H  21.2709 43.8090 89.7408 0
M  V30 75 H  20.3018 43.4244 87.6487 0
M  V30 76 H  23.4091 44.8863 88.6687 0
M  V30 77 H  22.8250 44.2876 87.1311 0
M  V30 78 H  20.9484 45.5492 87.4342 0
M  V30 79 H  27.0264 43.5851 83.9308 0
M  V30 80 H  26.3366 44.8240 84.9919 0
M  V30 81 H  27.4357 45.2762 83.6798 0
M  V30 82 H  30.6851 43.7434 86.4684 0
M  V30 83 H  29.6653 43.4753 87.8483 0
M  V30 84 H  30.7066 41.2973 85.9929 0
M  V30 85 H  30.1511 39.9297 87.8314 0
M  V30 86 H  32.2915 42.7110 87.7734 0
M  V30 87 H  31.6155 41.5557 88.8379 0
M  V30 88 H  32.4834 39.8590 90.0433 0
M  V30 89 H  34.2069 39.6189 90.2974 0
M  V30 90 H  33.5856 41.2485 90.0345 0
M  V30 91 H  33.6828 44.1025 83.4236 0
M  V30 92 H  34.4932 46.0611 82.7391 0
M  V30 93 H  35.7343 45.8433 83.9278 0
M  V30 94 H  37.2219 44.7748 82.2012 0
M  V30 95 H  37.4427 46.6637 80.9383 0
M  V30 96 H  35.3069 43.8908 80.7037 0
M  V30 97 H  35.0944 45.5284 80.1340 0
M  V30 98 H  36.5039 44.2827 78.8245 0
M  V30 99 H  34.1922 37.8203 82.6990 0
M  V30 100 H  32.7244 35.8975 82.1114 0
M  V30 101 H  31.8030 36.9591 81.0808 0
M  V30 102 H  33.3652 35.5826 79.7810 0
M  V30 103 H  35.6217 36.0739 80.0079 0
M  V30 104 H  32.8832 37.9755 78.9719 0
M  V30 105 H  34.3953 38.4683 79.6947 0
M  V30 106 H  33.9466 36.8199 77.4632 0
M  V30 END ATOM
M  V30 BEGIN BOND
M  V30 1 1 1 2
M  V30 2 1 1 63
M  V30 3 1 2 3
M  V30 4 1 2 64
M  V30 5 1 2 65
M  V30 6 1 3 4
M  V30 7 1 3 5
M  V30 8 1 3 66
M  V30 9 1 4 67
M  V30 10 1 5 6
M  V30 11 1 5 68
M  V30 12 1 5 69
M  V30 13 1 6 7
M  V30 14 1 6 70
M  V30 15 2 7 8
M  V30 16 1 7 9
M  V30 17 2 9 10
M  V30 18 1 9 12
M  V30 19 1 10 11
M  V30 20 1 10 25
M  V30 21 1 12 13
M  V30 22 2 12 14
M  V30 23 1 14 15
M  V30 24 1 14 23
M  V30 25 2 15 16
M  V30 26 1 15 17
M  V30 27 1 17 18
M  V30 28 1 17 71
M  V30 29 1 18 19
M  V30 30 1 18 72
M  V30 31 1 18 73
M  V30 32 1 19 20
M  V30 33 1 19 21
M  V30 34 1 19 74
M  V30 35 1 20 75
M  V30 36 1 21 22
M  V30 37 1 21 76
M  V30 38 1 21 77
M  V30 39 1 22 78
M  V30 40 1 23 24
M  V30 41 2 23 25
M  V30 42 1 25 26
M  V30 43 1 26 27
M  V30 44 1 26 30
M  V30 45 2 27 28
M  V30 46 1 27 29
M  V30 47 1 29 79
M  V30 48 1 29 80
M  V30 49 1 29 81
M  V30 50 1 30 31
M  V30 51 1 30 82
M  V30 52 1 30 83
M  V30 53 1 31 32
M  V30 54 1 31 33
M  V30 55 1 31 84
M  V30 56 1 32 85
M  V30 57 1 33 34
M  V30 58 1 33 86
M  V30 59 1 33 87
M  V30 60 1 34 35
M  V30 61 1 34 38
M  V30 62 2 35 36
M  V30 63 1 35 37
M  V30 64 1 37 88
M  V30 65 1 37 89
M  V30 66 1 37 90
M  V30 67 2 38 39
M  V30 68 1 38 53
M  V30 69 1 39 40
M  V30 70 1 39 41
M  V30 71 1 41 42
M  V30 72 2 41 50
M  V30 73 2 42 43
M  V30 74 1 42 44
M  V30 75 1 44 45
M  V30 76 1 44 91
M  V30 77 1 45 46
M  V30 78 1 45 92
M  V30 79 1 45 93
M  V30 80 1 46 47
M  V30 81 1 46 48
M  V30 82 1 46 94
M  V30 83 1 47 95
M  V30 84 1 48 49
M  V30 85 1 48 96
M  V30 86 1 48 97
M  V30 87 1 49 98
M  V30 88 1 50 51
M  V30 89 1 50 52
M  V30 90 2 52 53
M  V30 91 1 52 55
M  V30 92 1 53 54
M  V30 93 2 55 56
M  V30 94 1 55 57
M  V30 95 1 57 58
M  V30 96 1 57 99
M  V30 97 1 58 59
M  V30 98 1 58 100
M  V30 99 1 58 101
M  V30 100 1 59 60
M  V30 101 1 59 61
M  V30 102 1 59 102
M  V30 103 1 60 103
M  V30 104 1 61 62
M  V30 105 1 61 104
M  V30 106 1 61 105
M  V30 107 1 62 106
M  V30 END BOND
M  V30 END CTAB
M  END
> <s_m_entry_id>
960

> <s_m_entry_name>
result.2472

> <s_m_Source_Path>
D:\OneDrive - zju.edu.cn\DOC\A-Finished\LCK_VS\Planet\LCK-8617

> <s_m_Source_File>
glide-dock_SP_top1262_2_pv.maegz

> <i_m_Source_File_Index>
960

> <PLANET_affinity>
9.312

> <i_lp_mmshare_version>
54117

> <i_f3d_flags>
0

> <s_epik_input>
W09IXVtDSDJdW0NAQEhdKFtPSF0pW0NIMl1bTkhdQyg9TyljMWMoSSljKGMoSSljKGMxSSlDKD1PKVtOSF1bQ0gyXVtDQEhdKFtPSF0pW0NIMl1bT0hdKU4oQyg9TylbQ0gzXSlbQ0gyXVtDSF0oW09IXSlbQ0gyXU4oQyg9TylbQ0gzXSljMmMoSSljKEMoPU8pW05IXVtDSDJdW0NASF0oW09IXSlbQ0gyXVtPSF0pYyhJKWMoYzJJKUMoPU8pW05IXVtDSDJdW0NASF0oW09IXSlbQ0gyXVtPSF0=

> <s_epik_cmdline>
J2VwaWtfcHl0aG9uJywgJy1waCcsICc3LjAnLCAnLXRuJywgJzgnLCAnLW1hJywgJzUwMCcsICctaW1hZScsICc8aW5maWxlLm1hZT4nLCAnLW9tYWUnLCAnPG91dGZpbGUubWFlPic=

> <r_epik_Ionization_Penalty>
  0.0001

> <r_epik_Ionization_Penalty_Charging>
  0.0000

> <r_epik_Ionization_Penalty_Neutral>
  0.0001

> <r_epik_State_Penalty>
  0.0000

> <r_epik_Charging_Adjusted_Penalty>
0

> <i_epik_Tot_Q>
0

> <i_epik_Tot_abs_Q>
0

> <s_lp_Force_Field>
S-OPLS

> <r_lp_Energy>
29.2062

> <b_lp_Chiralities_Consistent>
1

> <s_lp_Variant>
OC(CN(C1=C(I)C(C(NCC(O)CO)=O)=C(I)C(C(NCC(O)CO)=O)=C1I)C(C)=O)CN(C2=C(I)C(C(N...-1

> <s_i_glide_gridfile>
glide-grid_1

> <i_i_glide_lignum>
414

> <i_i_glide_rotatable_bonds>
37

> <r_i_docking_score>
-7.57070692714794

> <r_i_glide_ligand_efficiency>
-0.122108176244322

> <r_i_glide_ligand_efficiency_sa>
-0.483290925565908

> <r_i_glide_ligand_efficiency_ln>
-1.47659615656463

> <r_i_glide_gscore>
-7.57070692714794

> <r_i_glide_lipo>
-1.45131463196439

> <r_i_glide_hbond>
-0.32

> <r_i_glide_metal>
0

> <r_i_glide_rewards>
-0.171882543599172

> <r_i_glide_evdw>
-51.7645072937012

> <r_i_glide_ecoul>
-19.8814659118652

> <r_i_glide_erotb>
0.0478526006794849

> <r_i_glide_esite>
-0.104917100799019

> <r_i_glide_emodel>
-103.749073434466

> <r_i_glide_energy>
-71.6459732055664

> <r_i_glide_einternal>
15.7470073699951

> <i_i_glide_confnum>
1311

> <i_i_glide_posenum>
100

> <r_i_glide_eff_state_penalty>
0

> <r_lp_tautomer_probability>
1

> <s_m_subgroup_title>
glide-dock_SP_top1262_2_pv

> <s_m_subgroupid>
glide-dock_SP_top1262_2_pv

> <b_m_subgroup_collapsed>
0

$$$$
FC1=CC=C(C=C1)CNC(C(N=C(N2C)N3S(CCCC3)(=O)=O)=C(C2=O)O)=O
                    3D
 Schrodinger Suite 2021-3.
  0  0  0     0  0            999 V3000
M  V30 BEGIN CTAB
M  V30 COUNTS 46 48 0 0 0
M  V30 BEGIN ATOM
M  V30 1 F  16.6756 39.1666 84.8521 0
M  V30 2 C  17.6598 38.3796 85.3357 0
M  V30 3 C  17.6463 37.9995 86.6744 0
M  V30 4 C  18.6627 37.1963 87.1800 0
M  V30 5 C  19.6942 36.7691 86.3405 0
M  V30 6 C  19.6972 37.1558 84.9906 0
M  V30 7 C  18.6780 37.9570 84.4884 0
M  V30 8 C  20.8195 35.9187 86.9343 0
M  V30 9 N  22.0873 35.9601 86.2091 0
M  V30 10 C  22.8574 37.0534 86.0355 0
M  V30 11 O  22.5906 38.1237 86.5933 0
M  V30 12 C  24.0491 36.8613 85.1923 0
M  V30 13 N  25.1389 37.5592 85.6409 0
M  V30 14 C  26.2558 37.5696 85.0044 0
M  V30 15 N  26.4462 36.7169 83.9282 0
M  V30 16 C  27.7970 36.5156 83.3584 0
M  V30 17 C  25.4424 35.9477 83.3680 0
M  V30 18 O  25.6636 35.1623 82.4289 0
M  V30 19 C  24.1279 36.1114 84.0323 0
M  V30 20 O  23.1035 35.5565 83.4564 0 CHG=-1
M  V30 21 N  27.2892 38.5104 85.4020 0
M  V30 22 S  27.6402 39.8727 84.3134 0
M  V30 23 O  28.9812 40.3951 84.5934 0
M  V30 24 O  27.2906 39.5577 82.9234 0
M  V30 25 C  27.4733 38.8567 86.8446 0
M  V30 26 C  26.5680 40.0064 87.3457 0
M  V30 27 C  26.6425 41.2972 86.5106 0
M  V30 28 C  26.3529 41.0592 85.0196 0
M  V30 29 H  16.8530 38.3447 87.3197 0
M  V30 30 H  18.6472 36.9139 88.2225 0
M  V30 31 H  20.4885 36.8428 84.3242 0
M  V30 32 H  18.6806 38.2534 83.4502 0
M  V30 33 H  20.9988 36.2064 87.9736 0
M  V30 34 H  20.4818 34.8814 86.9595 0
M  V30 35 H  22.3359 35.1427 85.6674 0
M  V30 36 H  28.5890 36.8243 84.0419 0
M  V30 37 H  27.9970 35.4687 83.1176 0
M  V30 38 H  27.9093 37.0965 82.4455 0
M  V30 39 H  27.2850 37.9616 87.4399 0
M  V30 40 H  28.5258 39.1032 86.9975 0
M  V30 41 H  25.5339 39.6595 87.3778 0
M  V30 42 H  26.8251 40.2325 88.3812 0
M  V30 43 H  27.6284 41.7510 86.6238 0
M  V30 44 H  25.9317 42.0243 86.9058 0
M  V30 45 H  26.4082 41.9859 84.4495 0
M  V30 46 H  25.3660 40.6237 84.8628 0
M  V30 END ATOM
M  V30 BEGIN BOND
M  V30 1 1 1 2
M  V30 2 2 2 3
M  V30 3 1 2 7
M  V30 4 1 3 4
M  V30 5 1 3 29
M  V30 6 2 4 5
M  V30 7 1 4 30
M  V30 8 1 5 6
M  V30 9 1 5 8
M  V30 10 2 6 7
M  V30 11 1 6 31
M  V30 12 1 7 32
M  V30 13 1 8 9
M  V30 14 1 8 33
M  V30 15 1 8 34
M  V30 16 1 9 10
M  V30 17 1 9 35
M  V30 18 2 10 11
M  V30 19 1 10 12
M  V30 20 1 12 13
M  V30 21 2 12 19
M  V30 22 2 13 14
M  V30 23 1 14 15
M  V30 24 1 14 21
M  V30 25 1 15 16
M  V30 26 1 15 17
M  V30 27 1 16 36
M  V30 28 1 16 37
M  V30 29 1 16 38
M  V30 30 2 17 18
M  V30 31 1 17 19
M  V30 32 1 19 20
M  V30 33 1 21 22
M  V30 34 1 21 25
M  V30 35 2 22 23
M  V30 36 2 22 24
M  V30 37 1 22 28
M  V30 38 1 25 26
M  V30 39 1 25 39
M  V30 40 1 25 40
M  V30 41 1 26 27
M  V30 42 1 26 41
M  V30 43 1 26 42
M  V30 44 1 27 28
M  V30 45 1 27 43
M  V30 46 1 27 44
M  V30 47 1 28 45
M  V30 48 1 28 46
M  V30 END BOND
M  V30 END CTAB
M  END
> <s_m_entry_id>
967

> <s_m_entry_name>
result.2414

> <s_m_Source_Path>
D:\OneDrive - zju.edu.cn\DOC\A-Finished\LCK_VS\Planet\LCK-8617

> <s_m_Source_File>
glide-dock_SP_top1262_2_pv.maegz

> <i_m_Source_File_Index>
967

> <PLANET_affinity>
7.323

> <i_lp_mmshare_version>
54117

> <i_f3d_flags>
0

> <s_epik_input>
RmMxW2NIXVtjSF1jKFtjSF1bY0hdMSlbQ0gyXVtOSF1DKD1PKWMybmMobihbQ0gzXSljKD1PKWMyW09IXSlOKFMzKD1PKT1PKVtDSDJdW0NIMl1bQ0gyXVtDSDJdMw==

> <s_epik_cmdline>
J2VwaWtfcHl0aG9uJywgJy1waCcsICc3LjAnLCAnLXRuJywgJzgnLCAnLW1hJywgJzUwMCcsICctaW1hZScsICc8aW5maWxlLm1hZT4nLCAnLW9tYWUnLCAnPG91dGZpbGUubWFlPic=

> <r_epik_Ionization_Penalty>
  0.3482

> <r_epik_Ionization_Penalty_Charging>
  0.3482

> <r_epik_Ionization_Penalty_Neutral>
  0.0000

> <r_epik_State_Penalty>
  0.0008

> <r_epik_Charging_Adjusted_Penalty>
0.348965

> <i_epik_Tot_Q>
-1

> <i_epik_Tot_abs_Q>
1

> <s_lp_Force_Field>
S-OPLS

> <r_lp_Energy>
60.547

> <b_lp_Chiralities_Consistent>
1

> <s_lp_Variant>
FC1=CC=C(C=C1)CNC(C(N=C(N2C)N3S(CCCC3)(=O)=O)=C(C2=O)O)=O-1

> <s_i_glide_gridfile>
glide-grid_1

> <i_i_glide_lignum>
2206

> <i_i_glide_rotatable_bonds>
5

> <r_i_docking_score>
-7.56885298716594

> <r_i_glide_ligand_efficiency>
-0.270316178113069

> <r_i_glide_ligand_efficiency_sa>
-0.820839124465989

> <r_i_glide_ligand_efficiency_ln>
-1.74711350061815

> <r_i_glide_gscore>
-7.56965298716594

> <r_i_glide_lipo>
-2.76797211630718

> <r_i_glide_hbond>
-0.304057593119129

> <r_i_glide_metal>
0

> <r_i_glide_rewards>
-2.23481057908526

> <r_i_glide_evdw>
-43.0255584716797

> <r_i_glide_ecoul>
-3.83066773414612

> <r_i_glide_erotb>
0.469888027217733

> <r_i_glide_esite>
-0.00682264216620888

> <r_i_glide_emodel>
-66.3799439669032

> <r_i_glide_energy>
-46.8562262058258

> <r_i_glide_einternal>
0.356565713882446

> <i_i_glide_confnum>
4

> <i_i_glide_posenum>
35

> <r_i_glide_eff_state_penalty>
0.0008

> <r_lp_tautomer_probability>
1

> <s_m_subgroup_title>
glide-dock_SP_top1262_2_pv

> <s_m_subgroupid>
glide-dock_SP_top1262_2_pv

> <b_m_subgroup_collapsed>
0

$$$$
CC1=CC=CC(C2=NN3C(CCC3)=C2C4=CC=NC5=C4C=C(C=C5)C(N)=O)=N1
                    3D
 Schrodinger Suite 2021-3.
  0  0  0     0  0            999 V3000
M  V30 BEGIN CTAB
M  V30 COUNTS 47 51 0 0 0
M  V30 BEGIN ATOM
M  V30 1 C  17.9599 37.8239 87.8285 0
M  V30 2 C  19.3090 37.1833 87.5634 0
M  V30 3 C  19.4991 35.8061 87.6543 0
M  V30 4 C  20.7664 35.2803 87.4005 0
M  V30 5 C  21.8114 36.1472 87.0750 0
M  V30 6 C  21.5513 37.5215 87.0005 0
M  V30 7 N  20.3125 38.0343 87.2427 0
M  V30 8 C  22.5866 38.5348 86.6199 0
M  V30 9 N  22.6033 39.6919 87.2580 0
M  V30 10 C  23.5967 38.4612 85.6121 0
M  V30 11 C  24.1347 39.7529 85.6241 0
M  V30 12 N  23.5383 40.4129 86.6565 0
M  V30 13 C  25.0818 40.7165 84.9413 0
M  V30 14 C  25.2325 41.8174 85.9951 0
M  V30 15 C  23.9387 41.7942 86.8111 0
M  V30 16 C  23.9252 37.3212 84.6787 0
M  V30 17 C  22.8580 36.5860 84.1447 0
M  V30 18 C  23.0989 35.5561 83.2443 0
M  V30 19 N  24.3322 35.2122 82.8117 0
M  V30 20 C  25.2504 36.9784 84.2393 0
M  V30 21 C  25.3942 35.9262 83.2796 0
M  V30 22 C  26.4297 37.6295 84.6892 0
M  V30 23 C  27.6839 37.3572 84.1273 0
M  V30 24 C  27.7868 36.3515 83.1627 0
M  V30 25 C  26.6735 35.6152 82.7702 0
M  V30 26 C  28.8884 38.1624 84.5638 0
M  V30 27 O  28.7660 39.2505 85.1185 0
M  V30 28 N  30.0964 37.6399 84.3484 0
M  V30 29 H  17.2823 37.1470 88.3540 0
M  V30 30 H  17.4897 38.1194 86.8884 0
M  V30 31 H  18.0777 38.7187 88.4426 0
M  V30 32 H  18.6845 35.1568 87.9398 0
M  V30 33 H  20.9348 34.2138 87.4604 0
M  V30 34 H  22.7974 35.7578 86.8738 0
M  V30 35 H  26.0562 40.3250 84.6562 0
M  V30 36 H  24.6231 41.1219 84.0429 0
M  V30 37 H  26.0821 41.5931 86.6444 0
M  V30 38 H  25.4235 42.7948 85.5470 0
M  V30 39 H  23.1795 42.4548 86.3879 0
M  V30 40 H  24.0981 42.0527 87.8580 0
M  V30 41 H  21.8382 36.8264 84.4019 0
M  V30 42 H  22.2774 34.9793 82.8425 0
M  V30 43 H  26.3493 38.3611 85.4760 0
M  V30 44 H  28.7359 36.1073 82.7052 0
M  V30 45 H  26.7847 34.8242 82.0438 0
M  V30 46 H  30.2059 36.7233 83.9414 0
M  V30 47 H  30.9075 38.1648 84.6378 0
M  V30 END ATOM
M  V30 BEGIN BOND
M  V30 1 1 1 2
M  V30 2 1 1 29
M  V30 3 1 1 30
M  V30 4 1 1 31
M  V30 5 2 2 3
M  V30 6 1 2 7
M  V30 7 1 3 4
M  V30 8 1 3 32
M  V30 9 2 4 5
M  V30 10 1 4 33
M  V30 11 1 5 6
M  V30 12 1 5 34
M  V30 13 2 6 7
M  V30 14 1 6 8
M  V30 15 2 8 9
M  V30 16 1 8 10
M  V30 17 1 9 12
M  V30 18 2 10 11
M  V30 19 1 10 16
M  V30 20 1 11 12
M  V30 21 1 11 13
M  V30 22 1 12 15
M  V30 23 1 13 14
M  V30 24 1 13 35
M  V30 25 1 13 36
M  V30 26 1 14 15
M  V30 27 1 14 37
M  V30 28 1 14 38
M  V30 29 1 15 39
M  V30 30 1 15 40
M  V30 31 2 16 17
M  V30 32 1 16 20
M  V30 33 1 17 18
M  V30 34 1 17 41
M  V30 35 2 18 19
M  V30 36 1 18 42
M  V30 37 1 19 21
M  V30 38 2 20 21
M  V30 39 1 20 22
M  V30 40 1 21 25
M  V30 41 2 22 23
M  V30 42 1 22 43
M  V30 43 1 23 24
M  V30 44 1 23 26
M  V30 45 2 24 25
M  V30 46 1 24 44
M  V30 47 1 25 45
M  V30 48 2 26 27
M  V30 49 1 26 28
M  V30 50 1 28 46
M  V30 51 1 28 47
M  V30 END BOND
M  V30 END CTAB
M  END
> <s_m_entry_id>
971

> <s_m_entry_name>
result.3955

> <s_m_Source_Path>
D:\OneDrive - zju.edu.cn\DOC\A-Finished\LCK_VS\Planet\LCK-8617

> <s_m_Source_File>
glide-dock_SP_top1262_2_pv.maegz

> <i_m_Source_File_Index>
971

> <PLANET_affinity>
7.627

> <i_lp_mmshare_version>
54117

> <i_f3d_flags>
0

> <s_epik_input>
W0NIM11jMVtjSF1bY0hdW2NIXWMobjEpLWMobm4oYzIzKVtDSDJdW0NIMl1bQ0gyXTMpYzItYzRbY0hdW2NIXW5jKGM0NSlbY0hdW2NIXWMoW2NIXTUpQyg9TylbTkgyXQ==

> <s_epik_cmdline>
J2VwaWtfcHl0aG9uJywgJy1waCcsICc3LjAnLCAnLXRuJywgJzgnLCAnLW1hJywgJzUwMCcsICctaW1hZScsICc8aW5maWxlLm1hZT4nLCAnLW9tYWUnLCAnPG91dGZpbGUubWFlPic=

> <r_epik_Ionization_Penalty>
  0.0095

> <r_epik_Ionization_Penalty_Charging>
  0.0000

> <r_epik_Ionization_Penalty_Neutral>
  0.0095

> <r_epik_State_Penalty>
  0.0069

> <r_epik_Charging_Adjusted_Penalty>
0.00685404

> <i_epik_Tot_Q>
0

> <i_epik_Tot_abs_Q>
0

> <s_lp_Force_Field>
S-OPLS

> <r_lp_Energy>
40.8224

> <b_lp_Chiralities_Consistent>
1

> <s_lp_Variant>
CC1=CC=CC(C2=NN3C(CCC3)=C2C4=CC=NC5=C4C=C(C=C5)C(N)=O)=N1-1

> <s_i_glide_gridfile>
glide-grid_1

> <i_i_glide_lignum>
1759

> <i_i_glide_rotatable_bonds>
3

> <r_i_docking_score>
-7.5647774629272

> <r_i_glide_ligand_efficiency>
-0.270170623675971

> <r_i_glide_ligand_efficiency_sa>
-0.820397135467981

> <r_i_glide_ligand_efficiency_ln>
-1.74617274996126

> <r_i_glide_gscore>
-7.5716774629272

> <r_i_glide_lipo>
-3.46823878964597

> <r_i_glide_hbond>
0

> <r_i_glide_metal>
0

> <r_i_glide_rewards>
-1.89500280308686

> <r_i_glide_evdw>
-39.3947525024414

> <r_i_glide_ecoul>
-3.47507739067078

> <r_i_glide_erotb>
0.282563363528325

> <r_i_glide_esite>
0

> <r_i_glide_emodel>
-62.2445351229372

> <r_i_glide_energy>
-42.8698298931122

> <r_i_glide_einternal>
2.05441784858704

> <i_i_glide_confnum>
8

> <i_i_glide_posenum>
84

> <r_i_glide_eff_state_penalty>
0.0069

> <r_lp_tautomer_probability>
1

> <s_m_subgroup_title>
glide-dock_SP_top1262_2_pv

> <s_m_subgroupid>
glide-dock_SP_top1262_2_pv

> <b_m_subgroup_collapsed>
0

$$$$
O=C(OC[C@H]1NCCOC1)NC2=CN(C3=C2C)N=CN=C3NC4=CC5=C(C=C4)N(CC6=CC(F)=CC=C6)N=C5.Cl
                    3D
 Schrodinger Suite 2021-3.
  0  0  0     0  0            999 V3000
M  V30 BEGIN CTAB
M  V30 COUNTS 67 72 0 0 0
M  V30 BEGIN ATOM
M  V30 1 C  36.5592 34.2989 79.4401 0
M  V30 2 O  36.0024 35.5383 79.0074 0
M  V30 3 C  35.2568 35.4440 77.7960 0
M  V30 4 C  34.0399 34.5119 77.9648 0
M  V30 5 N  34.4815 33.1566 78.5652 0 CHG=1
M  V30 6 C  35.4538 33.2626 79.7632 0 CFG=2
M  V30 7 C  34.6554 33.5172 81.0638 0
M  V30 8 O  34.0147 34.7880 81.0532 0
M  V30 9 C  33.1642 35.1463 82.0269 0
M  V30 10 O  32.8624 34.4399 82.9913 0
M  V30 11 N  32.7065 36.4235 81.7463 0
M  V30 12 C  31.8067 37.0691 82.5605 0
M  V30 13 C  32.0971 38.2438 83.2422 0
M  V30 14 C  30.4709 36.7092 82.7927 0
M  V30 15 C  29.7032 35.5171 82.2582 0
M  V30 16 C  29.9455 37.7252 83.6432 0
M  V30 17 N  30.9805 38.6402 83.9230 0
M  V30 18 C  28.7107 38.0489 84.2404 0
M  V30 19 N  28.5740 39.1490 85.0271 0
M  V30 20 C  29.6664 39.9229 85.2189 0
M  V30 21 N  30.8987 39.7348 84.6940 0
M  V30 22 N  27.5987 37.2423 83.9514 0
M  V30 23 C  26.2769 37.1974 84.4205 0
M  V30 24 C  25.3714 36.4345 83.6783 0
M  V30 25 C  25.8575 37.8539 85.5837 0
M  V30 26 C  24.5427 37.7906 86.0434 0
M  V30 27 C  23.6436 37.0373 85.2836 0
M  V30 28 C  24.0377 36.3571 84.1046 0
M  V30 29 N  22.2981 36.7511 85.4443 0
M  V30 30 N  21.8453 35.9566 84.4547 0
M  V30 31 C  22.8451 35.7278 83.6435 0
M  V30 32 C  21.4531 37.0456 86.6054 0
M  V30 33 C  19.9796 37.3875 86.3695 0
M  V30 34 C  19.5202 37.9298 85.1611 0
M  V30 35 C  18.1751 38.2620 85.0024 0
M  V30 36 F  17.7361 38.7566 83.8232 0
M  V30 37 C  17.2842 38.0833 86.0598 0
M  V30 38 C  17.7305 37.5542 87.2691 0
M  V30 39 C  19.0717 37.2036 87.4200 0
M  V30 40 H  37.2557 33.9163 78.6922 0
M  V30 41 H  37.1555 34.4950 80.3334 0
M  V30 42 H  35.8982 35.1109 76.9768 0
M  V30 43 H  34.9139 36.4426 77.5209 0
M  V30 44 H  33.5475 34.3029 77.0138 0
M  V30 45 H  33.2956 34.9285 78.6450 0
M  V30 46 H  33.6611 32.6187 78.8468 0
M  V30 47 H  35.8905 32.2641 79.8250 0
M  V30 48 H  33.9086 32.7295 81.1998 0
M  V30 49 H  35.3268 33.4631 81.9238 0
M  V30 50 H  33.1119 36.9129 80.9634 0
M  V30 51 H  33.0126 38.8125 83.2936 0
M  V30 52 H  28.8574 35.8248 81.6449 0
M  V30 53 H  30.3171 34.8608 81.6436 0
M  V30 54 H  29.3108 34.8994 83.0665 0
M  V30 55 H  29.5420 40.7932 85.8502 0
M  V30 56 H  27.7994 36.5446 83.2512 0
M  V30 57 H  25.6859 35.9234 82.7808 0
M  V30 58 H  26.5565 38.4195 86.1774 0
M  V30 59 H  24.2438 38.3043 86.9451 0
M  V30 60 H  22.7140 35.1071 82.7679 0
M  V30 61 H  21.5212 36.1734 87.2559 0
M  V30 62 H  21.8992 37.8758 87.1518 0
M  V30 63 H  20.1989 38.1013 84.3396 0
M  V30 64 H  16.2460 38.3570 85.9464 0
M  V30 65 H  17.0359 37.4250 88.0864 0
M  V30 66 H  19.4043 36.7977 88.3650 0
M  V30 67 H  34.9259 32.6126 77.8400 0
M  V30 END ATOM
M  V30 BEGIN BOND
M  V30 1 1 1 2
M  V30 2 1 1 6
M  V30 3 1 1 40
M  V30 4 1 1 41
M  V30 5 1 2 3
M  V30 6 1 3 4
M  V30 7 1 3 42
M  V30 8 1 3 43
M  V30 9 1 4 5
M  V30 10 1 4 44
M  V30 11 1 4 45
M  V30 12 1 5 6
M  V30 13 1 5 46
M  V30 14 1 5 67
M  V30 15 1 6 7
M  V30 16 1 6 47
M  V30 17 1 7 8
M  V30 18 1 7 48
M  V30 19 1 7 49
M  V30 20 1 8 9
M  V30 21 2 9 10
M  V30 22 1 9 11
M  V30 23 1 11 12
M  V30 24 1 11 50
M  V30 25 2 12 13
M  V30 26 1 12 14
M  V30 27 1 13 17
M  V30 28 1 13 51
M  V30 29 1 14 15
M  V30 30 2 14 16
M  V30 31 1 15 52
M  V30 32 1 15 53
M  V30 33 1 15 54
M  V30 34 1 16 17
M  V30 35 1 16 18
M  V30 36 1 17 21
M  V30 37 2 18 19
M  V30 38 1 18 22
M  V30 39 1 19 20
M  V30 40 2 20 21
M  V30 41 1 20 55
M  V30 42 1 22 23
M  V30 43 1 22 56
M  V30 44 2 23 24
M  V30 45 1 23 25
M  V30 46 1 24 28
M  V30 47 1 24 57
M  V30 48 2 25 26
M  V30 49 1 25 58
M  V30 50 1 26 27
M  V30 51 1 26 59
M  V30 52 2 27 28
M  V30 53 1 27 29
M  V30 54 1 28 31
M  V30 55 1 29 30
M  V30 56 1 29 32
M  V30 57 2 30 31
M  V30 58 1 31 60
M  V30 59 1 32 33
M  V30 60 1 32 61
M  V30 61 1 32 62
M  V30 62 2 33 34
M  V30 63 1 33 39
M  V30 64 1 34 35
M  V30 65 1 34 63
M  V30 66 1 35 36
M  V30 67 2 35 37
M  V30 68 1 37 38
M  V30 69 1 37 64
M  V30 70 2 38 39
M  V30 71 1 38 65
M  V30 72 1 39 66
M  V30 END BOND
M  V30 END CTAB
M  END
> <s_m_entry_id>
974

> <s_m_entry_name>
result.2256

> <s_m_Source_Path>
D:\OneDrive - zju.edu.cn\DOC\A-Finished\LCK_VS\Planet\LCK-8617

> <s_m_Source_File>
glide-dock_SP_top1262_2_pv.maegz

> <i_m_Source_File_Index>
974

> <PLANET_affinity>
7.616

> <i_lp_mmshare_version>
54117

> <i_f3d_flags>
0

> <s_epik_input>
W05IXTFbQ0gyXVtDSDJdT1tDSDJdW0NASF0xW0NIMl1PQyg9TylbTkhdYyhjMltDSDNdKVtjSF1uKGMyMyluW2NIXW5jM1tOSF1jKFtjSF1bY0hdNClbY0hdYyhjNDUpW2NIXW5uNVtDSDJdYzZbY0hdYyhGKVtjSF1bY0hdW2NIXTY=

> <s_epik_cmdline>
J2VwaWtfcHl0aG9uJywgJy1waCcsICc3LjAnLCAnLXRuJywgJzgnLCAnLW1hJywgJzUwMCcsICctaW1hZScsICc8aW5maWxlLm1hZT4nLCAnLW9tYWUnLCAnPG91dGZpbGUubWFlPic=

> <r_epik_Ionization_Penalty>
  0.1892

> <r_epik_Ionization_Penalty_Charging>
  0.1891

> <r_epik_Ionization_Penalty_Neutral>
  0.0002

> <r_epik_State_Penalty>
  0.1787

> <r_epik_Charging_Adjusted_Penalty>
0.367736

> <i_epik_Tot_Q>
1

> <i_epik_Tot_abs_Q>
1

> <s_epik_Chemistry_Notes>
This compound has an ester and may undergo hydrolysis at high or low pH.

> <s_lp_Force_Field>
S-OPLS

> <r_lp_Energy>
40.7167

> <b_lp_Chiralities_Consistent>
1

> <s_lp_Variant>
O=C(OC[C@H]1NCCOC1)NC2=CN(C3=C2C)N=CN=C3NC4=CC5=C(C=C4)N(CC6=CC(F)=CC=C6)N=C5.Cl-1

> <s_i_glide_gridfile>
glide-grid_1

> <i_i_glide_lignum>
1782

> <i_i_glide_rotatable_bonds>
9

> <r_i_docking_score>
-7.56426240770649

> <r_i_glide_ligand_efficiency>
-0.193955446351448

> <r_i_glide_ligand_efficiency_sa>
-0.657743928298724

> <r_i_glide_ligand_efficiency_ln>
-1.62199258456982

> <r_i_glide_gscore>
-7.74296240770649

> <r_i_glide_lipo>
-3.62993664809135

> <r_i_glide_hbond>
-0.315680211316907

> <r_i_glide_metal>
0

> <r_i_glide_rewards>
-0.897005778882038

> <r_i_glide_evdw>
-50.1746215820312

> <r_i_glide_ecoul>
-6.19969844818115

> <r_i_glide_erotb>
0.583830825446116

> <r_i_glide_esite>
-0.0454847485335668

> <r_i_glide_emodel>
-85.4985498156818

> <r_i_glide_energy>
-56.3743200302124

> <r_i_glide_einternal>
10.1306838989258

> <i_i_glide_confnum>
220

> <i_i_glide_posenum>
290

> <r_i_glide_eff_state_penalty>
0.1787

> <r_lp_tautomer_probability>
1

> <s_m_subgroup_title>
glide-dock_SP_top1262_2_pv

> <s_m_subgroupid>
glide-dock_SP_top1262_2_pv

> <b_m_subgroup_collapsed>
0

$$$$
CCC(C(C1=CC=C(O)C=C1)=C(N)N=C2)=C2C3=CC=C(C(NC)=O)N=C3
                    3D
 Schrodinger Suite 2021-3.
  0  0  0     0  0            999 V3000
M  V30 BEGIN CTAB
M  V30 COUNTS 46 48 0 0 0
M  V30 BEGIN ATOM
M  V30 1 C  29.0311 38.0639 84.6131 0
M  V30 2 C  30.0728 38.9762 84.7648 0
M  V30 3 C  29.9421 40.2702 84.2682 0
M  V30 4 O  30.9791 41.1567 84.4205 0
M  V30 5 C  28.7716 40.6512 83.6178 0
M  V30 6 C  27.7326 39.7321 83.4624 0
M  V30 7 C  27.8414 38.4331 83.9743 0
M  V30 8 C  26.7193 37.4422 83.8379 0
M  V30 9 C  25.4504 37.6388 84.4511 0
M  V30 10 C  25.1987 38.8994 85.2996 0
M  V30 11 C  25.8626 38.8395 86.6881 0
M  V30 12 C  26.8953 36.2625 83.0837 0
M  V30 13 N  28.0952 35.9576 82.4437 0
M  V30 14 N  25.9240 35.3444 82.8999 0
M  V30 15 C  24.7267 35.5586 83.4812 0
M  V30 16 C  24.4224 36.6725 84.2687 0
M  V30 17 C  23.0210 36.7983 84.7895 0
M  V30 18 C  22.7175 37.1107 86.1220 0
M  V30 19 C  21.3963 37.3277 86.5220 0
M  V30 20 C  20.3765 37.2163 85.5649 0
M  V30 21 N  20.6391 36.8343 84.2869 0
M  V30 22 C  21.9294 36.6241 83.9294 0
M  V30 23 C  18.9404 37.5568 85.8816 0
M  V30 24 O  18.2185 38.0966 85.0387 0
M  V30 25 N  18.5090 37.2075 87.1060 0
M  V30 26 C  17.1450 37.4256 87.5746 0
M  V30 27 H  29.1429 37.0616 85.0016 0
M  V30 28 H  30.9806 38.6804 85.2709 0
M  V30 29 H  30.8791 42.0318 84.0054 0
M  V30 30 H  28.6657 41.6572 83.2421 0
M  V30 31 H  26.8345 40.0356 82.9425 0
M  V30 32 H  25.5448 39.7846 84.7725 0
M  V30 33 H  24.1347 39.1012 85.4080 0
M  V30 34 H  25.6168 39.7250 87.2743 0
M  V30 35 H  25.5432 37.9666 87.2539 0
M  V30 36 H  26.9495 38.7940 86.6120 0
M  V30 37 H  28.8546 36.6186 82.4804 0
M  V30 38 H  28.0876 35.2122 81.7590 0
M  V30 39 H  23.9819 34.7961 83.2928 0
M  V30 40 H  23.5066 37.2351 86.8430 0
M  V30 41 H  21.1854 37.6271 87.5389 0
M  V30 42 H  22.0843 36.3577 82.8927 0
M  V30 43 H  19.1261 36.6871 87.7105 0
M  V30 44 H  17.1175 37.4797 88.6639 0
M  V30 45 H  16.4982 36.6117 87.2456 0
M  V30 46 H  16.7356 38.3566 87.1859 0
M  V30 END ATOM
M  V30 BEGIN BOND
M  V30 1 2 1 2
M  V30 2 1 1 7
M  V30 3 1 1 27
M  V30 4 1 2 3
M  V30 5 1 2 28
M  V30 6 1 3 4
M  V30 7 2 3 5
M  V30 8 1 4 29
M  V30 9 1 5 6
M  V30 10 1 5 30
M  V30 11 2 6 7
M  V30 12 1 6 31
M  V30 13 1 7 8
M  V30 14 2 8 9
M  V30 15 1 8 12
M  V30 16 1 9 10
M  V30 17 1 9 16
M  V30 18 1 10 11
M  V30 19 1 10 32
M  V30 20 1 10 33
M  V30 21 1 11 34
M  V30 22 1 11 35
M  V30 23 1 11 36
M  V30 24 1 12 13
M  V30 25 2 12 14
M  V30 26 1 13 37
M  V30 27 1 13 38
M  V30 28 1 14 15
M  V30 29 2 15 16
M  V30 30 1 15 39
M  V30 31 1 16 17
M  V30 32 2 17 18
M  V30 33 1 17 22
M  V30 34 1 18 19
M  V30 35 1 18 40
M  V30 36 2 19 20
M  V30 37 1 19 41
M  V30 38 1 20 21
M  V30 39 1 20 23
M  V30 40 2 21 22
M  V30 41 1 22 42
M  V30 42 2 23 24
M  V30 43 1 23 25
M  V30 44 1 25 26
M  V30 45 1 25 43
M  V30 46 1 26 44
M  V30 47 1 26 45
M  V30 48 1 26 46
M  V30 END BOND
M  V30 END CTAB
M  END
> <s_m_entry_id>
981

> <s_m_entry_name>
result.4075

> <s_m_Source_Path>
D:\OneDrive - zju.edu.cn\DOC\A-Finished\LCK_VS\Planet\LCK-8617

> <s_m_Source_File>
glide-dock_SP_top1262_2_pv.maegz

> <i_m_Source_File_Index>
981

> <PLANET_affinity>
7.045

> <i_lp_mmshare_version>
54117

> <i_f3d_flags>
0

> <s_epik_input>
W09IXWMxW2NIXVtjSF1jKFtjSF1bY0hdMSktYzJjKFtDSDJdW0NIM10pYyhbY0hdbmMyW05IMl0pLWMzW2NIXVtjSF1jKG5bY0hdMylDKD1PKVtOSF1bQ0gzXQ==

> <s_epik_cmdline>
J2VwaWtfcHl0aG9uJywgJy1waCcsICc3LjAnLCAnLXRuJywgJzgnLCAnLW1hJywgJzUwMCcsICctaW1hZScsICc8aW5maWxlLm1hZT4nLCAnLW9tYWUnLCAnPG91dGZpbGUubWFlPic=

> <r_epik_Ionization_Penalty>
  0.3714

> <r_epik_Ionization_Penalty_Charging>
  0.0000

> <r_epik_Ionization_Penalty_Neutral>
  0.3714

> <r_epik_State_Penalty>
  0.2897

> <r_epik_Charging_Adjusted_Penalty>
0.289671

> <i_epik_Tot_Q>
0

> <i_epik_Tot_abs_Q>
0

> <s_lp_Force_Field>
S-OPLS

> <r_lp_Energy>
40.766

> <b_lp_Chiralities_Consistent>
1

> <s_lp_Variant>
CCC(C(C1=CC=C(O)C=C1)=C(N)N=C2)=C2C3=CC=C(C(NC)=O)N=C3-1

> <s_i_glide_gridfile>
glide-grid_1

> <i_i_glide_lignum>
2632

> <i_i_glide_rotatable_bonds>
6

> <r_i_docking_score>
-7.56072686856215

> <r_i_glide_ligand_efficiency>
-0.29079718725239

> <r_i_glide_ligand_efficiency_sa>
-0.861485523003527

> <r_i_glide_ligand_efficiency_ln>
-1.77561189631347

> <r_i_glide_gscore>
-7.85042686856215

> <r_i_glide_lipo>
-2.79932575717203

> <r_i_glide_hbond>
-0.482761024529382

> <r_i_glide_metal>
0

> <r_i_glide_rewards>
-2.0638423816057

> <r_i_glide_evdw>
-39.5115928649902

> <r_i_glide_ecoul>
-6.66269683837891

> <r_i_glide_erotb>
0.47048646375132

> <r_i_glide_esite>
0

> <r_i_glide_emodel>
-66.7614770421742

> <r_i_glide_energy>
-46.1742897033691

> <r_i_glide_einternal>
3.15153884887695

> <i_i_glide_confnum>
7

> <i_i_glide_posenum>
327

> <r_i_glide_eff_state_penalty>
0.2897

> <r_lp_tautomer_probability>
1

> <s_m_subgroup_title>
glide-dock_SP_top1262_2_pv

> <s_m_subgroupid>
glide-dock_SP_top1262_2_pv

> <b_m_subgroup_collapsed>
0

$$$$
O=C(NC1=NC=CS1)C(C2=CC(F)=CC=C2O)N(CC3=C4C=C(C5=CC=C(N6CCNCC6)C=C5)C=C3)C4=O
                    3D
 Schrodinger Suite 2021-3.
  0  0  0     0  0            999 V3000
M  V30 BEGIN CTAB
M  V30 COUNTS 66 71 0 0 0
M  V30 BEGIN ATOM
M  V30 1 S  23.1176 41.1566 91.0933 0
M  V30 2 C  24.6177 41.3860 91.9396 0
M  V30 3 C  25.6705 41.1580 91.0584 0
M  V30 4 N  25.3422 40.8200 89.8255 0
M  V30 5 C  24.0431 40.7568 89.6605 0
M  V30 6 N  23.5171 40.3912 88.4243 0
M  V30 7 C  22.2314 40.1574 88.0716 0
M  V30 8 O  21.2830 40.3146 88.8435 0
M  V30 9 C  21.9402 39.7276 86.5896 0 CFG=2
M  V30 10 C  20.5666 39.0374 86.3983 0
M  V30 11 C  20.1590 37.9992 87.2513 0
M  V30 12 C  18.9150 37.3885 87.1067 0
M  V30 13 F  18.5406 36.4054 87.9567 0
M  V30 14 C  18.0642 37.7895 86.0810 0
M  V30 15 C  18.4713 38.7829 85.1925 0
M  V30 16 C  19.7129 39.4046 85.3492 0
M  V30 17 O  20.0889 40.3561 84.4437 0
M  V30 18 N  23.0417 38.9511 85.9513 0
M  V30 19 C  22.9385 37.5168 85.6636 0
M  V30 20 C  24.2179 39.4963 85.5425 0
M  V30 21 O  24.5648 40.6705 85.6536 0
M  V30 22 C  24.9992 38.3629 84.9615 0
M  V30 23 C  24.2301 37.2212 84.9800 0
M  V30 24 C  26.3001 38.3459 84.4558 0
M  V30 25 C  26.8463 37.1456 83.9669 0
M  V30 26 C  26.0150 36.0119 83.9164 0
M  V30 27 C  24.7161 36.0456 84.4211 0
M  V30 28 C  28.2870 37.0436 83.5823 0
M  V30 29 C  28.7145 36.1239 82.6160 0
M  V30 30 C  30.0656 35.9656 82.3296 0
M  V30 31 C  31.0306 36.7265 82.9983 0
M  V30 32 C  30.6068 37.6591 83.9484 0
M  V30 33 C  29.2545 37.8185 84.2334 0
M  V30 34 N  32.3931 36.5505 82.7766 0
M  V30 35 C  33.2631 36.1558 83.8990 0
M  V30 36 C  33.3960 34.6224 84.0439 0
M  V30 37 N  33.9848 34.0439 82.7449 0 CHG=1
M  V30 38 C  33.1039 34.4536 81.5487 0
M  V30 39 C  32.9392 35.9935 81.5258 0
M  V30 40 H  24.6445 41.6673 92.9825 0
M  V30 41 H  26.7169 41.2402 91.3132 0
M  V30 42 H  24.1981 40.3072 87.6820 0
M  V30 43 H  21.8903 40.6871 86.0752 0
M  V30 44 H  20.8093 37.6632 88.0436 0
M  V30 45 H  17.0960 37.3231 85.9715 0
M  V30 46 H  17.8137 39.0750 84.3885 0
M  V30 47 H  20.8519 40.8727 84.7114 0
M  V30 48 H  22.8095 36.9467 86.5841 0
M  V30 49 H  22.0784 37.3080 85.0259 0
M  V30 50 H  26.8940 39.2484 84.4745 0
M  V30 51 H  26.3889 35.0699 83.5438 0
M  V30 52 H  24.1079 35.1566 84.4014 0
M  V30 53 H  28.0057 35.5180 82.0698 0
M  V30 54 H  30.3442 35.2350 81.5879 0
M  V30 55 H  31.3287 38.2627 84.4796 0
M  V30 56 H  28.9735 38.5264 84.9986 0
M  V30 57 H  34.2480 36.6070 83.7633 0
M  V30 58 H  32.8853 36.5643 84.8370 0
M  V30 59 H  32.4384 34.1253 84.2105 0
M  V30 60 H  34.0846 34.3429 84.8433 0
M  V30 61 H  34.0532 33.0372 82.8111 0
M  V30 62 H  32.1527 33.9359 81.6636 0
M  V30 63 H  33.5967 34.0745 80.6514 0
M  V30 64 H  32.3002 36.2875 80.6910 0
M  V30 65 H  33.9034 36.4642 81.3262 0
M  V30 66 H  34.9220 34.3989 82.6178 0
M  V30 END ATOM
M  V30 BEGIN BOND
M  V30 1 1 1 2
M  V30 2 1 1 5
M  V30 3 2 2 3
M  V30 4 1 2 40
M  V30 5 1 3 4
M  V30 6 1 3 41
M  V30 7 2 4 5
M  V30 8 1 5 6
M  V30 9 1 6 7
M  V30 10 1 6 42
M  V30 11 2 7 8
M  V30 12 1 7 9
M  V30 13 1 9 10
M  V30 14 1 9 18
M  V30 15 1 9 43
M  V30 16 2 10 11
M  V30 17 1 10 16
M  V30 18 1 11 12
M  V30 19 1 11 44
M  V30 20 1 12 13
M  V30 21 2 12 14
M  V30 22 1 14 15
M  V30 23 1 14 45
M  V30 24 2 15 16
M  V30 25 1 15 46
M  V30 26 1 16 17
M  V30 27 1 17 47
M  V30 28 1 18 19
M  V30 29 1 18 20
M  V30 30 1 19 23
M  V30 31 1 19 48
M  V30 32 1 19 49
M  V30 33 2 20 21
M  V30 34 1 20 22
M  V30 35 2 22 23
M  V30 36 1 22 24
M  V30 37 1 23 27
M  V30 38 2 24 25
M  V30 39 1 24 50
M  V30 40 1 25 26
M  V30 41 1 25 28
M  V30 42 2 26 27
M  V30 43 1 26 51
M  V30 44 1 27 52
M  V30 45 2 28 29
M  V30 46 1 28 33
M  V30 47 1 29 30
M  V30 48 1 29 53
M  V30 49 2 30 31
M  V30 50 1 30 54
M  V30 51 1 31 32
M  V30 52 1 31 34
M  V30 53 2 32 33
M  V30 54 1 32 55
M  V30 55 1 33 56
M  V30 56 1 34 35
M  V30 57 1 34 39
M  V30 58 1 35 36
M  V30 59 1 35 57
M  V30 60 1 35 58
M  V30 61 1 36 37
M  V30 62 1 36 59
M  V30 63 1 36 60
M  V30 64 1 37 38
M  V30 65 1 37 61
M  V30 66 1 37 66
M  V30 67 1 38 39
M  V30 68 1 38 62
M  V30 69 1 38 63
M  V30 70 1 39 64
M  V30 71 1 39 65
M  V30 END BOND
M  V30 END CTAB
M  END
> <s_m_entry_id>
982

> <s_m_entry_name>
result.2247

> <s_m_Source_Path>
D:\OneDrive - zju.edu.cn\DOC\A-Finished\LCK_VS\Planet\LCK-8617

> <s_m_Source_File>
glide-dock_SP_top1262_2_pv.maegz

> <i_m_Source_File_Index>
982

> <PLANET_affinity>
7.654

> <i_lp_mmshare_version>
54117

> <i_f3d_flags>
0

> <s_epik_input>
bjFbY0hdW2NIXXNjMVtOSF1DKD1PKVtDQEhdKGMyW2NIXWMoRilbY0hdW2NIXWMyW09IXSlOKEMzPU8pW0NIMl1jKGMzNClbY0hdW2NIXWMoW2NIXTQpLWM1W2NIXVtjSF1jKFtjSF1bY0hdNSlONltDSDJdW0NIMl1bTkhdW0NIMl1bQ0gyXTY=

> <s_epik_cmdline>
J2VwaWtfcHl0aG9uJywgJy1waCcsICc3LjAnLCAnLXRuJywgJzgnLCAnLW1hJywgJzUwMCcsICctaW1hZScsICc8aW5maWxlLm1hZT4nLCAnLW9tYWUnLCAnPG91dGZpbGUubWFlPic=

> <r_epik_Ionization_Penalty>
  0.0184

> <r_epik_Ionization_Penalty_Charging>
  0.0086

> <r_epik_Ionization_Penalty_Neutral>
  0.0098

> <r_epik_State_Penalty>
  0.0111

> <r_epik_Charging_Adjusted_Penalty>
0.0196301

> <i_epik_Tot_Q>
1

> <i_epik_Tot_abs_Q>
1

> <s_lp_Force_Field>
S-OPLS

> <r_lp_Energy>
62.0538

> <b_lp_Chiralities_Consistent>
1

> <s_lp_Variant>
O=C(NC1=NC=CS1)C(C2=CC(F)=CC=C2O)N(CC3=C4C=C(C5=CC=C(N6CCNCC6)C=C5)C=C3)C4=O-1

> <s_i_glide_gridfile>
glide-grid_1

> <i_i_glide_lignum>
1720

> <i_i_glide_rotatable_bonds>
8

> <r_i_docking_score>
-7.56066444355838

> <r_i_glide_ligand_efficiency>
-0.193863190860471

> <r_i_glide_ligand_efficiency_sa>
-0.657431070422423

> <r_i_glide_ligand_efficiency_ln>
-1.62122107892217

> <r_i_glide_gscore>
-7.57176444355838

> <r_i_glide_lipo>
-3.72507258539706

> <r_i_glide_hbond>
-0.177713007411402

> <r_i_glide_metal>
0

> <r_i_glide_rewards>
-0.645594560013552

> <r_i_glide_evdw>
-45.9440116882324

> <r_i_glide_ecoul>
-7.53941774368286

> <r_i_glide_erotb>
0.418715291073754

> <r_i_glide_esite>
-0.0139863358460668

> <r_i_glide_emodel>
-80.6631758361606

> <r_i_glide_energy>
-53.4834294319153

> <r_i_glide_einternal>
5.288330078125

> <i_i_glide_confnum>
70

> <i_i_glide_posenum>
121

> <r_i_glide_eff_state_penalty>
0.0111

> <r_lp_tautomer_probability>
0.999

> <s_m_subgroup_title>
glide-dock_SP_top1262_2_pv

> <s_m_subgroupid>
glide-dock_SP_top1262_2_pv

> <b_m_subgroup_collapsed>
0

$$$$
O=C(C1=CN=C(NCCC2=CC=C(O)C(Cl)=C2)N=C1NCC3=CC=CC=C3)N
                    3D
 Schrodinger Suite 2021-3.
  0  0  0     0  0            999 V3000
M  V30 BEGIN CTAB
M  V30 COUNTS 48 50 0 0 0
M  V30 BEGIN ATOM
M  V30 1 Cl 29.0737 35.7289 82.4442 0
M  V30 2 C  27.8021 36.5863 83.2443 0
M  V30 3 C  28.1260 37.5838 84.1688 0
M  V30 4 C  26.4588 36.2966 82.9730 0
M  V30 5 O  26.1041 35.3539 82.0441 0
M  V30 6 C  25.4521 36.9837 83.6449 0
M  V30 7 C  25.7762 37.9961 84.5459 0
M  V30 8 C  27.1148 38.3017 84.8189 0
M  V30 9 C  27.4597 39.4385 85.7816 0
M  V30 10 C  27.2453 39.1254 87.2826 0
M  V30 11 N  25.8813 38.7211 87.6039 0
M  V30 12 C  24.8511 39.6441 87.8088 0
M  V30 13 N  25.1297 40.9218 88.1774 0
M  V30 14 C  24.0646 41.7505 88.3245 0
M  V30 15 C  22.7415 41.3427 88.0923 0
M  V30 16 C  21.5939 42.3000 88.2690 0
M  V30 17 O  20.5615 41.9568 88.8398 0
M  V30 18 N  21.7454 43.5044 87.7264 0
M  V30 19 N  23.6134 39.1554 87.5664 0
M  V30 20 C  22.5588 40.0029 87.6892 0
M  V30 21 N  21.2803 39.5226 87.3440 0
M  V30 22 C  21.0212 38.1744 86.8482 0
M  V30 23 C  19.8351 38.2140 85.8964 0
M  V30 24 C  18.5510 38.4770 86.3844 0
M  V30 25 C  17.4737 38.5459 85.5061 0
M  V30 26 C  17.6833 38.3566 84.1405 0
M  V30 27 C  18.9581 38.0954 83.6485 0
M  V30 28 C  20.0386 38.0294 84.5250 0
M  V30 29 H  29.1638 37.8070 84.3696 0
M  V30 30 H  26.8449 35.1580 81.4527 0
M  V30 31 H  24.4170 36.7564 83.4381 0
M  V30 32 H  24.9814 38.5496 85.0249 0
M  V30 33 H  26.8564 40.3048 85.5069 0
M  V30 34 H  28.4918 39.7522 85.6228 0
M  V30 35 H  27.5012 40.0157 87.8573 0
M  V30 36 H  27.9460 38.3694 87.6375 0
M  V30 37 H  25.5831 37.8272 87.2445 0
M  V30 38 H  24.2989 42.7596 88.6370 0
M  V30 39 H  22.5526 43.7205 87.1649 0
M  V30 40 H  20.9447 44.1325 87.6928 0
M  V30 41 H  20.4971 40.1542 87.4550 0
M  V30 42 H  20.7859 37.5228 87.6917 0
M  V30 43 H  21.8908 37.7483 86.3462 0
M  V30 44 H  18.3829 38.6385 87.4408 0
M  V30 45 H  16.4810 38.7474 85.8849 0
M  V30 46 H  16.8452 38.3747 83.4581 0
M  V30 47 H  19.1073 37.9570 82.5884 0
M  V30 48 H  21.0304 37.8405 84.1395 0
M  V30 END ATOM
M  V30 BEGIN BOND
M  V30 1 1 1 2
M  V30 2 2 2 3
M  V30 3 1 2 4
M  V30 4 1 3 8
M  V30 5 1 3 29
M  V30 6 1 4 5
M  V30 7 2 4 6
M  V30 8 1 5 30
M  V30 9 1 6 7
M  V30 10 1 6 31
M  V30 11 2 7 8
M  V30 12 1 7 32
M  V30 13 1 8 9
M  V30 14 1 9 10
M  V30 15 1 9 33
M  V30 16 1 9 34
M  V30 17 1 10 11
M  V30 18 1 10 35
M  V30 19 1 10 36
M  V30 20 1 11 12
M  V30 21 1 11 37
M  V30 22 2 12 13
M  V30 23 1 12 19
M  V30 24 1 13 14
M  V30 25 2 14 15
M  V30 26 1 14 38
M  V30 27 1 15 16
M  V30 28 1 15 20
M  V30 29 2 16 17
M  V30 30 1 16 18
M  V30 31 1 18 39
M  V30 32 1 18 40
M  V30 33 2 19 20
M  V30 34 1 20 21
M  V30 35 1 21 22
M  V30 36 1 21 41
M  V30 37 1 22 23
M  V30 38 1 22 42
M  V30 39 1 22 43
M  V30 40 2 23 24
M  V30 41 1 23 28
M  V30 42 1 24 25
M  V30 43 1 24 44
M  V30 44 2 25 26
M  V30 45 1 25 45
M  V30 46 1 26 27
M  V30 47 1 26 46
M  V30 48 2 27 28
M  V30 49 1 27 47
M  V30 50 1 28 48
M  V30 END BOND
M  V30 END CTAB
M  END
> <s_m_entry_id>
985

> <s_m_entry_name>
result.896

> <s_m_Source_Path>
D:\OneDrive - zju.edu.cn\DOC\A-Finished\LCK_VS\Planet\LCK-8617

> <s_m_Source_File>
glide-dock_SP_top1262_2_pv.maegz

> <i_m_Source_File_Index>
985

> <PLANET_affinity>
7.023

> <i_lp_mmshare_version>
54117

> <i_f3d_flags>
0

> <s_epik_input>
W09IXWMxW2NIXVtjSF1jKFtjSF1jMUNsKVtDSDJdW0NIMl1bTkhdYzJuW2NIXWMoQyg9TylbTkgyXSljKG4yKVtOSF1bQ0gyXWMzW2NIXVtjSF1bY0hdW2NIXVtjSF0z

> <s_epik_cmdline>
J2VwaWtfcHl0aG9uJywgJy1waCcsICc3LjAnLCAnLXRuJywgJzgnLCAnLW1hJywgJzUwMCcsICctaW1hZScsICc8aW5maWxlLm1hZT4nLCAnLW9tYWUnLCAnPG91dGZpbGUubWFlPic=

> <r_epik_Ionization_Penalty>
  0.0627

> <r_epik_Ionization_Penalty_Charging>
  0.0000

> <r_epik_Ionization_Penalty_Neutral>
  0.0627

> <r_epik_State_Penalty>
  0.0457

> <r_epik_Charging_Adjusted_Penalty>
0.0457459

> <i_epik_Tot_Q>
0

> <i_epik_Tot_abs_Q>
0

> <s_lp_Force_Field>
S-OPLS

> <r_lp_Energy>
33.4095

> <b_lp_Chiralities_Consistent>
1

> <s_lp_Variant>
O=C(C1=CN=C(NCCC2=CC=C(O)C(Cl)=C2)N=C1NCC3=CC=CC=C3)N-1

> <s_i_glide_gridfile>
glide-grid_1

> <i_i_glide_lignum>
2680

> <i_i_glide_rotatable_bonds>
9

> <r_i_docking_score>
-7.5566093282283

> <r_i_glide_ligand_efficiency>
-0.269878904579582

> <r_i_glide_ligand_efficiency_sa>
-0.819511304477983

> <r_i_glide_ligand_efficiency_ln>
-1.74428730464589

> <r_i_glide_gscore>
-7.6023093282283

> <r_i_glide_lipo>
-2.86489206721586

> <r_i_glide_hbond>
-0.832700784594349

> <r_i_glide_metal>
0

> <r_i_glide_rewards>
-1.32572009529787

> <r_i_glide_evdw>
-35.3524208068848

> <r_i_glide_ecoul>
-10.1461534500122

> <r_i_glide_erotb>
0.865826615508932

> <r_i_glide_esite>
-0.15527893878308

> <r_i_glide_emodel>
-65.9738374390496

> <r_i_glide_energy>
-45.498574256897

> <r_i_glide_einternal>
6.0243182182312

> <i_i_glide_confnum>
164

> <i_i_glide_posenum>
191

> <r_i_glide_eff_state_penalty>
0.0457

> <r_lp_tautomer_probability>
1

> <s_m_subgroup_title>
glide-dock_SP_top1262_2_pv

> <s_m_subgroupid>
glide-dock_SP_top1262_2_pv

> <b_m_subgroup_collapsed>
0

$$$$
O=C(N1CCN(C2=NC(N)=C3C=C(OC)C(OC)=CC3=N2)CC1)C4OC5=CC=CC=C5OC4.CS(=O)(O)=O
                    3D
 Schrodinger Suite 2021-3.
  0  0  0     0  0            999 V3000
M  V30 BEGIN CTAB
M  V30 COUNTS 59 63 0 0 0
M  V30 BEGIN ATOM
M  V30 1 C  18.8828 37.7036 84.0458 0
M  V30 2 C  17.7052 38.3576 84.4121 0
M  V30 3 C  17.3615 38.4769 85.7612 0
M  V30 4 C  18.1844 37.9341 86.7513 0
M  V30 5 C  19.3476 37.2559 86.3873 0
M  V30 6 C  19.7064 37.1551 85.0292 0
M  V30 7 O  20.1301 36.7430 87.4013 0
M  V30 8 C  21.0189 35.7079 86.9638 0
M  V30 9 C  21.7590 36.0981 85.6465 0 CFG=1
M  V30 10 O  20.8130 36.4338 84.6093 0
M  V30 11 C  22.7392 37.2984 85.8085 0
M  V30 12 O  22.5082 38.1384 86.6833 0
M  V30 13 N  23.7454 37.4841 84.9054 0
M  V30 14 C  24.2736 36.4265 84.0209 0
M  V30 15 C  25.6685 35.9956 84.5237 0
M  V30 16 N  26.5993 37.1568 84.5936 0
M  V30 17 C  26.0384 38.2143 85.4722 0
M  V30 18 C  24.6285 38.6694 85.0002 0
M  V30 19 C  27.9146 37.1990 84.0178 0
M  V30 20 N  28.2262 36.2196 83.1347 0
M  V30 21 C  29.4525 36.2482 82.5624 0
M  V30 22 N  29.6830 35.2316 81.6438 0
M  V30 23 N  28.7877 38.1763 84.3334 0 CHG=1
M  V30 24 C  30.0463 38.2577 83.7833 0
M  V30 25 C  30.4178 37.2565 82.8437 0
M  V30 26 C  30.9230 39.3041 84.1179 0
M  V30 27 C  32.1810 39.3824 83.4973 0
M  V30 28 O  33.0893 40.3927 83.7613 0
M  V30 29 C  32.7712 41.4004 84.7167 0
M  V30 30 C  32.5637 38.4152 82.5518 0
M  V30 31 C  31.6962 37.3549 82.2373 0
M  V30 32 O  33.8088 38.5641 81.9620 0
M  V30 33 C  34.2317 37.6493 80.9527 0
M  V30 34 H  19.1369 37.6043 83.0026 0
M  V30 35 H  17.0532 38.7597 83.6538 0
M  V30 36 H  16.4536 38.9892 86.0433 0
M  V30 37 H  17.9115 38.0369 87.7908 0
M  V30 38 H  21.7275 35.4563 87.7543 0
M  V30 39 H  20.4357 34.8028 86.7870 0
M  V30 40 H  22.3554 35.2456 85.3410 0
M  V30 41 H  23.5968 35.6330 83.7112 0
M  V30 42 H  24.4832 36.9133 83.0724 0
M  V30 43 H  26.0686 35.1854 83.9160 0
M  V30 44 H  25.5780 35.5841 85.5266 0
M  V30 45 H  26.7057 39.0735 85.5111 0
M  V30 46 H  25.9963 37.8145 86.4865 0
M  V30 47 H  24.7137 39.0653 83.9887 0
M  V30 48 H  24.2269 39.4780 85.6171 0
M  V30 49 H  30.5326 35.1850 81.0910 0
M  V30 50 H  28.9325 34.5874 81.4550 0
M  V30 51 H  30.6040 40.0386 84.8396 0
M  V30 52 H  33.5892 42.1191 84.7686 0
M  V30 53 H  31.8715 41.9550 84.4448 0
M  V30 54 H  32.6407 40.9755 85.7133 0
M  V30 55 H  31.9769 36.6061 81.5144 0
M  V30 56 H  35.2174 37.9414 80.5935 0
M  V30 57 H  34.3107 36.6331 81.3395 0
M  V30 58 H  33.5540 37.6564 80.0976 0
M  V30 59 H  28.5043 38.8727 85.0046 0
M  V30 END ATOM
M  V30 BEGIN BOND
M  V30 1 2 1 2
M  V30 2 1 1 6
M  V30 3 1 1 34
M  V30 4 1 2 3
M  V30 5 1 2 35
M  V30 6 2 3 4
M  V30 7 1 3 36
M  V30 8 1 4 5
M  V30 9 1 4 37
M  V30 10 2 5 6
M  V30 11 1 5 7
M  V30 12 1 6 10
M  V30 13 1 7 8
M  V30 14 1 8 9
M  V30 15 1 8 38
M  V30 16 1 8 39
M  V30 17 1 9 10
M  V30 18 1 9 11
M  V30 19 1 9 40
M  V30 20 2 11 12
M  V30 21 1 11 13
M  V30 22 1 13 14
M  V30 23 1 13 18
M  V30 24 1 14 15
M  V30 25 1 14 41
M  V30 26 1 14 42
M  V30 27 1 15 16
M  V30 28 1 15 43
M  V30 29 1 15 44
M  V30 30 1 16 17
M  V30 31 1 16 19
M  V30 32 1 17 18
M  V30 33 1 17 45
M  V30 34 1 17 46
M  V30 35 1 18 47
M  V30 36 1 18 48
M  V30 37 2 19 20
M  V30 38 1 19 23
M  V30 39 1 20 21
M  V30 40 1 21 22
M  V30 41 2 21 25
M  V30 42 1 22 49
M  V30 43 1 22 50
M  V30 44 2 23 24
M  V30 45 1 23 59
M  V30 46 1 24 25
M  V30 47 1 24 26
M  V30 48 1 25 31
M  V30 49 2 26 27
M  V30 50 1 26 51
M  V30 51 1 27 28
M  V30 52 1 27 30
M  V30 53 1 28 29
M  V30 54 1 29 52
M  V30 55 1 29 53
M  V30 56 1 29 54
M  V30 57 2 30 31
M  V30 58 1 30 32
M  V30 59 1 31 55
M  V30 60 1 32 33
M  V30 61 1 33 56
M  V30 62 1 33 57
M  V30 63 1 33 58
M  V30 END BOND
M  V30 END CTAB
M  END
> <s_m_entry_id>
988

> <s_m_entry_name>
result.4016

> <s_m_Source_Path>
D:\OneDrive - zju.edu.cn\DOC\A-Finished\LCK_VS\Planet\LCK-8617

> <s_m_Source_File>
glide-dock_SP_top1262_2_pv.maegz

> <i_m_Source_File_Index>
988

> <PLANET_affinity>
7.762

> <i_lp_mmshare_version>
54117

> <i_f3d_flags>
0

> <s_epik_input>
W2NIXTFbY0hdW2NIXVtjSF1jKGMxMilPW0NASF0oW0NIMl1PMilDKD1PKU4zW0NIMl1bQ0gyXU4oW0NIMl1bQ0gyXTMpYyhuNCluYyhbTkgyXSljKGM0NSlbY0hdYyhPW0NIM10pYyhbY0hdNSlPW0NIM10=

> <s_epik_cmdline>
J2VwaWtfcHl0aG9uJywgJy1waCcsICc3LjAnLCAnLXRuJywgJzgnLCAnLW1hJywgJzUwMCcsICctaW1hZScsICc8aW5maWxlLm1hZT4nLCAnLW9tYWUnLCAnPG91dGZpbGUubWFlPic=

> <r_epik_Ionization_Penalty>
  0.5041

> <r_epik_Ionization_Penalty_Charging>
  0.5041

> <r_epik_Ionization_Penalty_Neutral>
  0.0000

> <r_epik_State_Penalty>
  0.1301

> <r_epik_Charging_Adjusted_Penalty>
0.634114

> <i_epik_Tot_Q>
1

> <i_epik_Tot_abs_Q>
1

> <s_lp_Force_Field>
S-OPLS

> <r_lp_Energy>
64.9248

> <b_lp_Chiralities_Consistent>
1

> <s_lp_Variant>
O=C(N1CCN(C2=NC(N)=C3C=C(OC)C(OC)=CC3=N2)CC1)C4OC5=CC=CC=C5OC4.CS(=O)(O)=O-1

> <s_i_glide_gridfile>
glide-grid_1

> <i_i_glide_lignum>
1549

> <i_i_glide_rotatable_bonds>
5

> <r_i_docking_score>
-7.55544065927199

> <r_i_glide_ligand_efficiency>
-0.228952747250666

> <r_i_glide_ligand_efficiency_sa>
-0.734373795897455

> <r_i_glide_ligand_efficiency_ln>
-1.68029088264401

> <r_i_glide_gscore>
-7.68554065927199

> <r_i_glide_lipo>
-3.03661447470765

> <r_i_glide_hbond>
-0.583243511144547

> <r_i_glide_metal>
0

> <r_i_glide_rewards>
-1.25823154255094

> <r_i_glide_evdw>
-35.8696022033691

> <r_i_glide_ecoul>
-8.50216484069824

> <r_i_glide_erotb>
0.294012694894674

> <r_i_glide_esite>
-0.032658989490326

> <r_i_glide_emodel>
-69.4966773535742

> <r_i_glide_energy>
-44.3717670440674

> <r_i_glide_einternal>
3.04506492614746

> <i_i_glide_confnum>
61

> <i_i_glide_posenum>
237

> <r_i_glide_eff_state_penalty>
0.1301

> <r_lp_tautomer_probability>
0.993508

> <s_m_subgroup_title>
glide-dock_SP_top1262_2_pv

> <s_m_subgroupid>
glide-dock_SP_top1262_2_pv

> <b_m_subgroup_collapsed>
0

$$$$
OCCO[C@@H]1CC[C@@H](N2C(N=C(N)N=C3C)=C3C=C(C4=CC=C(OC)N=C4)C2=O)CC1
                    3D
 Schrodinger Suite 2021-3.
  0  0  0     0  0            999 V3000
M  V30 BEGIN CTAB
M  V30 COUNTS 58 61 0 0 0
M  V30 BEGIN ATOM
M  V30 1 O  28.5594 42.3570 91.6431 0
M  V30 2 C  27.8560 42.8239 90.5059 0
M  V30 3 C  28.6525 42.5857 89.2071 0
M  V30 4 O  28.7260 41.2065 88.8434 0
M  V30 5 C  27.6170 40.6542 88.1409 0 CFG=2
M  V30 6 C  27.6834 39.1231 88.2669 0
M  V30 7 C  26.4989 38.4441 87.5993 0
M  V30 8 C  26.3107 38.8749 86.1245 0 CFG=2
M  V30 9 C  26.4724 40.4058 85.8723 0
M  V30 10 C  27.6563 41.0286 86.6434 0
M  V30 11 N  25.1515 38.2006 85.4894 0
M  V30 12 C  23.9000 38.5275 85.9725 0
M  V30 13 O  23.6867 39.4499 86.7658 0
M  V30 14 C  22.8116 37.6531 85.5203 0
M  V30 15 C  23.0148 36.6613 84.6317 0
M  V30 16 C  24.3257 36.4306 84.0409 0
M  V30 17 C  25.4017 37.1946 84.5017 0
M  V30 18 C  24.5578 35.5564 82.9804 0
M  V30 19 C  23.4307 34.7647 82.3645 0
M  V30 20 N  25.7888 35.3804 82.4434 0
M  V30 21 C  26.7807 36.1328 82.9746 0
M  V30 22 N  26.6501 37.0482 83.9639 0
M  V30 23 N  28.0449 35.9562 82.4437 0
M  V30 24 C  21.4778 37.7693 86.1399 0
M  V30 25 C  20.8273 36.6378 86.6507 0
M  V30 26 C  19.5520 36.7566 87.1883 0
M  V30 27 C  18.9449 38.0215 87.1891 0
M  V30 28 O  17.6827 38.2761 87.6437 0
M  V30 29 C  16.8691 37.1868 88.0437 0
M  V30 30 N  19.5652 39.1315 86.7238 0
M  V30 31 C  20.8058 38.9955 86.2057 0
M  V30 32 H  28.1220 42.6863 92.4342 0
M  V30 33 H  26.9026 42.2959 90.4703 0
M  V30 34 H  27.6136 43.8822 90.6156 0
M  V30 35 H  28.2259 43.1754 88.3960 0
M  V30 36 H  29.6687 42.9595 89.3333 0
M  V30 37 H  26.6814 41.0022 88.5847 0
M  V30 38 H  28.5807 38.7576 87.7711 0
M  V30 39 H  27.6831 38.7837 89.2990 0
M  V30 40 H  26.6214 37.3624 87.6465 0
M  V30 41 H  25.6138 38.6816 88.1905 0
M  V30 42 H  27.2221 38.4871 85.6726 0
M  V30 43 H  25.5740 40.9425 86.1762 0
M  V30 44 H  26.6014 40.5918 84.8048 0
M  V30 45 H  27.6356 42.1084 86.5055 0
M  V30 46 H  28.5819 40.6556 86.1995 0
M  V30 47 H  22.1897 36.0152 84.3650 0
M  V30 48 H  22.5507 35.3892 82.2047 0
M  V30 49 H  23.6831 34.3567 81.3935 0
M  V30 50 H  23.1658 33.9566 83.0420 0
M  V30 51 H  28.1120 35.4287 81.5791 0
M  V30 52 H  28.8027 36.5284 82.7818 0
M  V30 53 H  21.3071 35.6688 86.6361 0
M  V30 54 H  19.0552 35.8782 87.5736 0
M  V30 55 H  15.8740 37.5566 88.2930 0
M  V30 56 H  16.7613 36.4463 87.2467 0
M  V30 57 H  17.2793 36.7264 88.9399 0
M  V30 58 H  21.2570 39.9020 85.8253 0
M  V30 END ATOM
M  V30 BEGIN BOND
M  V30 1 1 1 2
M  V30 2 1 1 32
M  V30 3 1 2 3
M  V30 4 1 2 33
M  V30 5 1 2 34
M  V30 6 1 3 4
M  V30 7 1 3 35
M  V30 8 1 3 36
M  V30 9 1 4 5
M  V30 10 1 5 6
M  V30 11 1 5 10
M  V30 12 1 5 37
M  V30 13 1 6 7
M  V30 14 1 6 38
M  V30 15 1 6 39
M  V30 16 1 7 8
M  V30 17 1 7 40
M  V30 18 1 7 41
M  V30 19 1 8 9
M  V30 20 1 8 11
M  V30 21 1 8 42
M  V30 22 1 9 10
M  V30 23 1 9 43
M  V30 24 1 9 44
M  V30 25 1 10 45
M  V30 26 1 10 46
M  V30 27 1 11 12
M  V30 28 1 11 17
M  V30 29 2 12 13
M  V30 30 1 12 14
M  V30 31 2 14 15
M  V30 32 1 14 24
M  V30 33 1 15 16
M  V30 34 1 15 47
M  V30 35 2 16 17
M  V30 36 1 16 18
M  V30 37 1 17 22
M  V30 38 1 18 19
M  V30 39 2 18 20
M  V30 40 1 19 48
M  V30 41 1 19 49
M  V30 42 1 19 50
M  V30 43 1 20 21
M  V30 44 2 21 22
M  V30 45 1 21 23
M  V30 46 1 23 51
M  V30 47 1 23 52
M  V30 48 2 24 25
M  V30 49 1 24 31
M  V30 50 1 25 26
M  V30 51 1 25 53
M  V30 52 2 26 27
M  V30 53 1 26 54
M  V30 54 1 27 28
M  V30 55 1 27 30
M  V30 56 1 28 29
M  V30 57 1 29 55
M  V30 58 1 29 56
M  V30 59 1 29 57
M  V30 60 2 30 31
M  V30 61 1 31 58
M  V30 END BOND
M  V30 END CTAB
M  END
> <s_m_entry_id>
991

> <s_m_entry_name>
result.3181

> <s_m_Source_Path>
D:\OneDrive - zju.edu.cn\DOC\A-Finished\LCK_VS\Planet\LCK-8617

> <s_m_Source_File>
glide-dock_SP_top1262_2_pv.maegz

> <i_m_Source_File_Index>
991

> <PLANET_affinity>
8.313

> <i_lp_mmshare_version>
54117

> <i_f3d_flags>
0

> <s_epik_input>
W09IXVtDSDJdW0NIMl1PW0NAQEhdMVtDSDJdW0NIMl1bQ0BIXShbQ0gyXVtDSDJdMSluKGMoYzIzKW5jKFtOSDJdKW5jM1tDSDNdKWMoPU8pYyhbY0hdMiktYzRbY0hdW2NIXWMoT1tDSDNdKW5bY0hdNA==

> <s_epik_cmdline>
J2VwaWtfcHl0aG9uJywgJy1waCcsICc3LjAnLCAnLXRuJywgJzgnLCAnLW1hJywgJzUwMCcsICctaW1hZScsICc8aW5maWxlLm1hZT4nLCAnLW9tYWUnLCAnPG91dGZpbGUubWFlPic=

> <r_epik_Ionization_Penalty>
  0.0000

> <r_epik_Ionization_Penalty_Charging>
  0.0000

> <r_epik_Ionization_Penalty_Neutral>
  0.0000

> <r_epik_State_Penalty>
  0.0000

> <r_epik_Charging_Adjusted_Penalty>
7.35532e-07

> <i_epik_Tot_Q>
0

> <i_epik_Tot_abs_Q>
0

> <s_epik_Chemistry_Notes>
This compound has an imine and may undergo hydrolysis.

> <s_lp_Force_Field>
S-OPLS

> <r_lp_Energy>
62.8662

> <b_lp_Chiralities_Consistent>
1

> <s_lp_Variant>
OCCO[C@@H]1CC[C@@H](N2C(N=C(N)N=C3C)=C3C=C(C4=CC=C(OC)N=C4)C2=O)CC1-1

> <s_i_glide_gridfile>
glide-grid_1

> <i_i_glide_lignum>
962

> <i_i_glide_rotatable_bonds>
7

> <r_i_docking_score>
-7.55392307709838

> <r_i_glide_ligand_efficiency>
-0.243674937970915

> <r_i_glide_ligand_efficiency_sa>
-0.765475734738295

> <r_i_glide_ligand_efficiency_ln>
-1.70364115382591

> <r_i_glide_gscore>
-7.55392307709838

> <r_i_glide_lipo>
-2.56206127379366

> <r_i_glide_hbond>
-0.465738599977188

> <r_i_glide_metal>
0

> <r_i_glide_rewards>
-2.1698990712081

> <r_i_glide_evdw>
-39.6058540344238

> <r_i_glide_ecoul>
-5.04013204574585

> <r_i_glide_erotb>
0.383528075647566

> <r_i_glide_esite>
-0.00343969918393207

> <r_i_glide_emodel>
-62.1278590741461

> <r_i_glide_energy>
-44.6459860801697

> <r_i_glide_einternal>
5.31078624725342

> <i_i_glide_confnum>
89

> <i_i_glide_posenum>
352

> <r_i_glide_eff_state_penalty>
0

> <r_lp_tautomer_probability>
1

> <s_m_subgroup_title>
glide-dock_SP_top1262_2_pv

> <s_m_subgroupid>
glide-dock_SP_top1262_2_pv

> <b_m_subgroup_collapsed>
0

$$$$
C[C@H]1[C@@](C(C(N2[C@H](C(OCC)=O)CCCC2)=O)=O)(O)O[C@H](C[C@H](OC)/C(C)=C/C=C...
                    3D
 Schrodinger Suite 2021-3.
  0  0  0     0  0            999 V3000
M  V30 BEGIN CTAB
M  V30 COUNTS 150 152 0 0 0
M  V30 BEGIN ATOM
M  V30 1 C  24.3551 46.1551 87.8965 0
M  V30 2 C  25.6639 46.6214 88.5367 0
M  V30 3 O  26.0716 45.6895 89.5335 0
M  V30 4 C  27.2819 45.8181 90.1311 0
M  V30 5 O  28.1113 46.6930 89.8596 0
M  V30 6 C  27.5616 44.7764 91.2487 0 CFG=2
M  V30 7 C  29.0631 44.3647 91.3486 0
M  V30 8 C  29.5128 43.3689 90.2571 0
M  V30 9 C  28.5376 42.1863 90.1341 0
M  V30 10 C  27.0756 42.6573 89.9797 0
M  V30 11 N  26.7747 43.5111 91.1549 0
M  V30 12 C  26.0094 43.1396 92.2282 0
M  V30 13 O  25.8460 43.8236 93.2435 0
M  V30 14 C  25.3072 41.7148 92.1669 0
M  V30 15 O  26.0117 40.7005 92.1257 0
M  V30 16 C  23.7005 41.6848 92.1826 0 CFG=1
M  V30 17 O  23.2839 40.3708 92.2613 0
M  V30 18 C  23.0314 42.4616 93.3621 0 CFG=2
M  V30 19 C  23.3931 41.9565 94.7776 0
M  V30 20 C  21.5048 42.5153 93.1662 0
M  V30 21 C  21.1534 43.0434 91.7737 0
M  V30 22 C  21.9415 42.3313 90.6451 0 CFG=2
M  V30 23 O  23.3463 42.2778 90.9454 0
M  V30 24 C  21.6814 43.0197 89.2788 0
M  V30 25 C  21.3779 42.1157 88.0565 0 CFG=2
M  V30 26 O  20.4323 41.1152 88.4430 0
M  V30 27 C  19.4778 40.7439 87.4488 0
M  V30 28 C  22.5777 41.5494 87.2804 0
M  V30 29 C  23.5297 42.6173 86.7450 0
M  V30 30 C  22.7212 40.2271 87.0300 0
M  V30 31 C  23.7246 39.6245 86.1699 0
M  V30 32 C  23.7267 38.3177 85.8519 0
M  V30 33 C  24.6594 37.7698 84.8871 0
M  V30 34 C  24.7461 36.4629 84.5799 0
M  V30 35 C  25.6539 35.8277 83.5279 0 CFG=1
M  V30 36 C  24.7998 35.1595 82.4396 0
M  V30 37 C  26.6839 36.7646 82.8471 0
M  V30 38 C  27.7619 37.3784 83.7984 0 CFG=1
M  V30 39 C  29.1276 36.6725 83.6344 0
M  V30 40 C  27.9010 38.9133 83.6658 0
M  V30 41 O  27.2361 39.5471 82.8457 0
M  V30 42 C  28.9093 39.6488 84.5778 0 CFG=2
M  V30 43 O  28.8688 39.1573 85.9258 0
M  V30 44 C  27.7657 39.5464 86.7419 0
M  V30 45 C  28.8713 41.2055 84.4465 0 CFG=2
M  V30 46 O  29.2929 41.5567 83.1427 0
M  V30 47 C  29.7711 41.9863 85.4108 0
M  V30 48 C  29.1061 43.1894 86.0666 0
M  V30 49 C  31.0485 41.5846 85.6139 0
M  V30 50 C  32.2137 42.1459 86.4445 0 CFG=1
M  V30 51 C  32.1314 43.6224 86.9037 0
M  V30 52 C  32.5744 41.1542 87.5815 0
M  V30 53 O  32.4716 41.5104 88.7538 0
M  V30 54 C  33.0044 39.7819 87.2684 0
M  V30 55 C  33.3733 39.3612 86.0381 0
M  V30 56 C  33.7706 37.9434 85.6220 0 CFG=2
M  V30 57 C  34.1927 37.0273 86.7909 0
M  V30 58 C  34.8288 37.9128 84.4823 0
M  V30 59 C  34.4622 38.6245 83.1464 0 CFG=2
M  V30 60 C  33.1898 38.0577 82.4710 0
M  V30 61 C  32.8329 38.8157 81.1732 0
M  V30 62 C  34.0140 38.8730 80.1716 0 CFG=1
M  V30 63 O  33.6829 39.6976 79.0706 0
M  V30 64 C  35.3344 39.3416 80.8556 0 CFG=1
M  V30 65 C  35.6282 38.5173 82.1341 0
M  V30 66 O  36.4833 39.4094 80.0026 0
M  V30 67 C  36.8356 38.2377 79.2763 0
M  V30 68 H  23.9900 46.8877 87.1736 0
M  V30 69 H  23.5709 46.0051 88.6411 0
M  V30 70 H  24.4998 45.2161 87.3627 0
M  V30 71 H  26.4314 46.7217 87.7677 0
M  V30 72 H  25.5257 47.6031 88.9906 0
M  V30 73 H  27.3284 45.3177 92.1661 0
M  V30 74 H  29.7113 45.2434 91.3263 0
M  V30 75 H  29.2422 43.9325 92.3350 0
M  V30 76 H  29.5742 43.8968 89.3028 0
M  V30 77 H  30.5227 43.0079 90.4631 0
M  V30 78 H  28.8195 41.5562 89.2887 0
M  V30 79 H  28.6207 41.5567 91.0177 0
M  V30 80 H  26.9862 43.2778 89.0864 0
M  V30 81 H  26.3504 41.8627 89.7990 0
M  V30 82 H  23.4396 40.0738 93.1609 0
M  V30 83 H  23.3716 43.4939 93.2902 0
M  V30 84 H  23.0321 40.9418 94.9536 0
M  V30 85 H  24.4708 41.9548 94.9446 0
M  V30 86 H  22.9465 42.5930 95.5422 0
M  V30 87 H  21.0715 41.5227 93.3020 0
M  V30 88 H  21.0449 43.1535 93.9237 0
M  V30 89 H  21.3619 44.1135 91.7312 0
M  V30 90 H  20.0817 42.9408 91.6004 0
M  V30 91 H  21.5723 41.3087 90.5876 0
M  V30 92 H  20.8080 43.6660 89.3766 0
M  V30 93 H  22.4916 43.7128 89.0562 0
M  V30 94 H  20.8820 42.7714 87.3381 0
M  V30 95 H  18.8861 39.8999 87.7997 0
M  V30 96 H  18.7852 41.5574 87.2399 0
M  V30 97 H  19.9497 40.4478 86.5097 0
M  V30 98 H  24.2209 42.9155 87.5333 0
M  V30 99 H  24.1232 42.2980 85.8912 0
M  V30 100 H  22.9776 43.4989 86.4205 0
M  V30 101 H  22.0097 39.5474 87.4733 0
M  V30 102 H  24.4897 40.2443 85.7297 0
M  V30 103 H  22.9926 37.6605 86.2954 0
M  V30 104 H  25.2946 38.4694 84.3697 0
M  V30 105 H  24.0988 35.7695 85.1011 0
M  V30 106 H  26.2096 35.0435 84.0423 0
M  V30 107 H  24.1888 34.3552 82.8443 0
M  V30 108 H  24.1181 35.8757 81.9728 0
M  V30 109 H  25.4306 34.7610 81.6486 0
M  V30 110 H  27.1943 36.2216 82.0523 0
M  V30 111 H  26.1116 37.5174 82.3033 0
M  V30 112 H  27.4327 37.2148 84.8271 0
M  V30 113 H  29.8126 36.9255 84.4463 0
M  V30 114 H  29.0192 35.5872 83.6425 0
M  V30 115 H  29.6139 36.9382 82.6946 0
M  V30 116 H  29.8822 39.3331 84.2045 0
M  V30 117 H  27.8729 39.0823 87.7217 0
M  V30 118 H  27.7285 40.6254 86.8920 0
M  V30 119 H  26.8153 39.2188 86.3203 0
M  V30 120 H  27.8399 41.5425 84.5638 0
M  V30 121 H  29.9668 42.2524 83.2436 0
M  V30 122 H  29.2638 44.0776 85.4504 0
M  V30 123 H  28.0299 43.0485 86.1793 0
M  V30 124 H  29.4895 43.3850 87.0645 0
M  V30 125 H  31.3296 40.7069 85.0564 0
M  V30 126 H  33.0601 42.1285 85.7564 0
M  V30 127 H  31.4734 43.7659 87.7600 0
M  V30 128 H  33.1134 43.9820 87.2129 0
M  V30 129 H  31.7974 44.2791 86.0977 0
M  V30 130 H  32.9856 39.0970 88.1029 0
M  V30 131 H  33.3895 40.0701 85.2248 0
M  V30 132 H  32.8578 37.5020 85.2185 0
M  V30 133 H  33.3787 36.8788 87.5004 0
M  V30 134 H  34.4842 36.0367 86.4390 0
M  V30 135 H  35.0408 37.4420 87.3363 0
M  V30 136 H  35.7518 38.3463 84.8677 0
M  V30 137 H  35.0680 36.8701 84.2590 0
M  V30 138 H  34.3040 39.6877 83.3341 0
M  V30 139 H  33.3190 36.9922 82.2678 0
M  V30 140 H  32.3410 38.1032 83.1539 0
M  V30 141 H  32.5114 39.8281 81.4233 0
M  V30 142 H  31.9770 38.3319 80.7060 0
M  V30 143 H  34.1615 37.8732 79.7636 0
M  V30 144 H  32.7513 39.5567 78.8463 0
M  V30 145 H  35.1859 40.3792 81.1576 0
M  V30 146 H  36.5395 38.8910 82.6053 0
M  V30 147 H  35.8022 37.4635 81.9124 0
M  V30 148 H  37.7764 38.4116 78.7550 0
M  V30 149 H  36.9742 37.3726 79.9240 0
M  V30 150 H  36.0869 37.9970 78.5209 0
M  V30 END ATOM
M  V30 BEGIN BOND
M  V30 1 1 1 2
M  V30 2 1 1 68
M  V30 3 1 1 69
M  V30 4 1 1 70
M  V30 5 1 2 3
M  V30 6 1 2 71
M  V30 7 1 2 72
M  V30 8 1 3 4
M  V30 9 2 4 5
M  V30 10 1 4 6
M  V30 11 1 6 7
M  V30 12 1 6 11
M  V30 13 1 6 73
M  V30 14 1 7 8
M  V30 15 1 7 74
M  V30 16 1 7 75
M  V30 17 1 8 9
M  V30 18 1 8 76
M  V30 19 1 8 77
M  V30 20 1 9 10
M  V30 21 1 9 78
M  V30 22 1 9 79
M  V30 23 1 10 11
M  V30 24 1 10 80
M  V30 25 1 10 81
M  V30 26 1 11 12
M  V30 27 2 12 13
M  V30 28 1 12 14
M  V30 29 2 14 15
M  V30 30 1 14 16
M  V30 31 1 16 17
M  V30 32 1 16 18
M  V30 33 1 16 23
M  V30 34 1 17 82
M  V30 35 1 18 19
M  V30 36 1 18 20
M  V30 37 1 18 83
M  V30 38 1 19 84
M  V30 39 1 19 85
M  V30 40 1 19 86
M  V30 41 1 20 21
M  V30 42 1 20 87
M  V30 43 1 20 88
M  V30 44 1 21 22
M  V30 45 1 21 89
M  V30 46 1 21 90
M  V30 47 1 22 23
M  V30 48 1 22 24
M  V30 49 1 22 91
M  V30 50 1 24 25
M  V30 51 1 24 92
M  V30 52 1 24 93
M  V30 53 1 25 26
M  V30 54 1 25 28
M  V30 55 1 25 94
M  V30 56 1 26 27
M  V30 57 1 27 95
M  V30 58 1 27 96
M  V30 59 1 27 97
M  V30 60 1 28 29
M  V30 61 2 28 30
M  V30 62 1 29 98
M  V30 63 1 29 99
M  V30 64 1 29 100
M  V30 65 1 30 31
M  V30 66 1 30 101
M  V30 67 2 31 32
M  V30 68 1 31 102
M  V30 69 1 32 33
M  V30 70 1 32 103
M  V30 71 2 33 34
M  V30 72 1 33 104
M  V30 73 1 34 35
M  V30 74 1 34 105
M  V30 75 1 35 36
M  V30 76 1 35 37
M  V30 77 1 35 106
M  V30 78 1 36 107
M  V30 79 1 36 108
M  V30 80 1 36 109
M  V30 81 1 37 38
M  V30 82 1 37 110
M  V30 83 1 37 111
M  V30 84 1 38 39
M  V30 85 1 38 40
M  V30 86 1 38 112
M  V30 87 1 39 113
M  V30 88 1 39 114
M  V30 89 1 39 115
M  V30 90 2 40 41
M  V30 91 1 40 42
M  V30 92 1 42 43
M  V30 93 1 42 45
M  V30 94 1 42 116
M  V30 95 1 43 44
M  V30 96 1 44 117
M  V30 97 1 44 118
M  V30 98 1 44 119
M  V30 99 1 45 46
M  V30 100 1 45 47
M  V30 101 1 45 120
M  V30 102 1 46 121
M  V30 103 1 47 48
M  V30 104 2 47 49
M  V30 105 1 48 122
M  V30 106 1 48 123
M  V30 107 1 48 124
M  V30 108 1 49 50
M  V30 109 1 49 125
M  V30 110 1 50 51
M  V30 111 1 50 52
M  V30 112 1 50 126
M  V30 113 1 51 127
M  V30 114 1 51 128
M  V30 115 1 51 129
M  V30 116 2 52 53
M  V30 117 1 52 54
M  V30 118 2 54 55
M  V30 119 1 54 130
M  V30 120 1 55 56
M  V30 121 1 55 131
M  V30 122 1 56 57
M  V30 123 1 56 58
M  V30 124 1 56 132
M  V30 125 1 57 133
M  V30 126 1 57 134
M  V30 127 1 57 135
M  V30 128 1 58 59
M  V30 129 1 58 136
M  V30 130 1 58 137
M  V30 131 1 59 60
M  V30 132 1 59 65
M  V30 133 1 59 138
M  V30 134 1 60 61
M  V30 135 1 60 139
M  V30 136 1 60 140
M  V30 137 1 61 62
M  V30 138 1 61 141
M  V30 139 1 61 142
M  V30 140 1 62 63
M  V30 141 1 62 64
M  V30 142 1 62 143
M  V30 143 1 63 144
M  V30 144 1 64 65
M  V30 145 1 64 66
M  V30 146 1 64 145
M  V30 147 1 65 146
M  V30 148 1 65 147
M  V30 149 1 66 67
M  V30 150 1 67 148
M  V30 151 1 67 149
M  V30 152 1 67 150
M  V30 END BOND
M  V30 END CTAB
M  END
> <s_m_entry_id>
994

> <s_m_entry_name>
result.6185

> <s_m_Source_Path>
D:\OneDrive - zju.edu.cn\DOC\A-Finished\LCK_VS\Planet\LCK-8617

> <s_m_Source_File>
glide-dock_SP_top1262_2_pv.maegz

> <i_m_Source_File_Index>
994

> <PLANET_affinity>
7.712

> <i_lp_mmshare_version>
54117

> <i_f3d_flags>
0

> <s_epik_input>
W0NIM11bQ0gyXU9DKD1PKVtDQEBIXTFbQ0gyXVtDSDJdW0NIMl1bQ0gyXU4xQyg9TylDKD1PKVtDQEBdMihbT0hdKVtDQEhdKFtDSDNdKVtDSDJdW0NIMl1bQ0BIXShPMilbQ0gyXVtDQEhdKE9bQ0gzXSkvQyhbQ0gzXSk9W0NIXS9bQ0hdPVtDSF0vW0NIXT1bQ0hdL1tDQEBIXShbQ0gzXSlbQ0gyXVtDQEBIXShbQ0gzXSlDKD1PKVtDQEhdKE9bQ0gzXSlbQ0BIXShbT0hdKS9DKFtDSDNdKT1bQ0hdL1tDQEBIXShbQ0gzXSlDKD1PKS9bQ0hdPVtDSF0vW0NASF0oW0NIM10pW0NIMl1bQ0BASF0zW0NIMl1bQ0gyXVtDQEBIXShbT0hdKVtDQEBIXShbQ0gyXTMpT1tDSDNd

> <s_epik_cmdline>
J2VwaWtfcHl0aG9uJywgJy1waCcsICc3LjAnLCAnLXRuJywgJzgnLCAnLW1hJywgJzUwMCcsICctaW1hZScsICc8aW5maWxlLm1hZT4nLCAnLW9tYWUnLCAnPG91dGZpbGUubWFlPic=

> <r_epik_Ionization_Penalty>
  0.0021

> <r_epik_Ionization_Penalty_Charging>
  0.0000

> <r_epik_Ionization_Penalty_Neutral>
  0.0021

> <r_epik_State_Penalty>
  0.0014

> <r_epik_Charging_Adjusted_Penalty>
0.00141704

> <i_epik_Tot_Q>
0

> <i_epik_Tot_abs_Q>
0

> <s_epik_Chemistry_Notes>
This compound has an ester and may undergo hydrolysis at high or low pH.

> <s_lp_Force_Field>
S-OPLS

> <r_lp_Energy>
55.9534

> <b_lp_Chiralities_Consistent>
1

> <s_lp_Variant>
C[C@H]1[C@@](C(C(N2[C@H](C(OCC)=O)CCCC2)=O)=O)(O)O[C@H](C[C@H](OC)/C(C)=C/C=C...-1

> <s_i_glide_gridfile>
glide-grid_1

> <i_i_glide_lignum>
1634

> <i_i_glide_rotatable_bonds>
30

> <r_i_docking_score>
-7.55169052277522

> <r_i_glide_ligand_efficiency>
-0.112711798847391

> <r_i_glide_ligand_efficiency_sa>
-0.457784391864824

> <r_i_glide_ligand_efficiency_ln>
-1.45093881137958

> <r_i_glide_gscore>
-7.55309052277522

> <r_i_glide_lipo>
-2.31637568844077

> <r_i_glide_hbond>
-0.16

> <r_i_glide_metal>
0

> <r_i_glide_rewards>
-0.705065792881061

> <r_i_glide_evdw>
-50.5986824035645

> <r_i_glide_ecoul>
-14.5774049758911

> <r_i_glide_erotb>
0.353162968848844

> <r_i_glide_esite>
-0.00826714374035144

> <r_i_glide_emodel>
-81.0865163707555

> <r_i_glide_energy>
-65.1760873794556

> <r_i_glide_einternal>
29.9784164428711

> <i_i_glide_confnum>
80

> <i_i_glide_posenum>
340

> <r_i_glide_eff_state_penalty>
0.0014

> <r_lp_tautomer_probability>
1

> <s_m_subgroup_title>
glide-dock_SP_top1262_2_pv

> <s_m_subgroupid>
glide-dock_SP_top1262_2_pv

> <b_m_subgroup_collapsed>
0

$$$$
[H]Cl.O=C1[C@](O)(CC)C2=C(CO1)C(N3CC4=CC5=C(CN(C)C)C(O)=CC=C5N=C4C3=C2)=O
                    3D
 Schrodinger Suite 2021-3.
  0  0  0     0  0            999 V3000
M  V30 BEGIN CTAB
M  V30 COUNTS 53 57 0 0 0
M  V30 BEGIN ATOM
M  V30 1 C  26.1680 40.9621 92.0635 0
M  V30 2 C  25.4670 41.8900 93.0778 0
M  V30 3 C  23.9253 41.7056 93.2324 0 CFG=1
M  V30 4 O  23.7267 40.3528 93.6434 0
M  V30 5 C  23.4408 42.6400 94.3797 0
M  V30 6 O  23.3454 42.3569 95.5742 0
M  V30 7 O  23.0521 43.9124 94.0425 0
M  V30 8 C  23.2109 44.4221 92.7111 0
M  V30 9 C  22.7853 43.4050 91.6445 0
M  V30 10 C  23.2032 42.0147 91.9057 0
M  V30 11 C  22.0686 43.7005 90.5132 0
M  V30 12 O  21.6792 44.9025 90.2534 0 CHG=-1
M  V30 13 N  21.7533 42.7067 89.5790 0
M  V30 14 C  22.1900 41.4027 89.7607 0
M  V30 15 C  22.9151 41.0724 90.9763 0
M  V30 16 C  21.8344 40.5928 88.7572 0
M  V30 17 C  21.0615 41.3532 87.8079 0
M  V30 18 C  20.9874 42.7676 88.3196 0
M  V30 19 C  20.5602 40.7022 86.7357 0
M  V30 20 C  20.8199 39.2541 86.5627 0
M  V30 21 C  21.6079 38.6027 87.6129 0
M  V30 22 N  22.0830 39.2611 88.6056 0
M  V30 23 C  21.8017 37.1907 87.4879 0
M  V30 24 C  21.3437 36.4696 86.4436 0
M  V30 25 C  20.6017 37.0577 85.3218 0
M  V30 26 O  20.2486 36.3585 84.3713 0
M  V30 27 C  20.3443 38.5283 85.5010 0
M  V30 28 C  19.5457 39.1489 84.3621 0
M  V30 29 N  18.0830 39.0675 84.4265 0
M  V30 30 C  17.5667 37.9568 83.6543 0
M  V30 31 C  17.5031 39.1019 85.7674 0
M  V30 32 H  27.2398 41.1561 92.0433 0
M  V30 33 H  25.7880 41.1160 91.0524 0
M  V30 34 H  26.0308 39.9102 92.3167 0
M  V30 35 H  25.9538 41.7410 94.0433 0
M  V30 36 H  25.6968 42.9184 92.7983 0
M  V30 37 H  24.1812 40.2105 94.4834 0
M  V30 38 H  22.6428 45.3497 92.6346 0
M  V30 39 H  24.2582 44.6855 92.5642 0
M  V30 40 H  23.2228 40.0556 91.1676 0
M  V30 41 H  19.9591 43.0932 88.4922 0
M  V30 42 H  21.4421 43.4780 87.6265 0
M  V30 43 H  19.9463 41.2538 86.0435 0
M  V30 44 H  22.3189 36.6570 88.2695 0
M  V30 45 H  21.5307 35.4051 86.4446 0
M  V30 46 H  19.7951 40.2054 84.2974 0
M  V30 47 H  19.9127 38.7431 83.4191 0
M  V30 48 H  16.4831 38.0264 83.6125 0
M  V30 49 H  17.8436 37.0098 84.1152 0
M  V30 50 H  17.9424 37.9682 82.6302 0
M  V30 51 H  16.4163 39.1797 85.7163 0
M  V30 52 H  17.8742 39.9559 86.3337 0
M  V30 53 H  17.7431 38.2015 86.3348 0
M  V30 END ATOM
M  V30 BEGIN BOND
M  V30 1 1 1 2
M  V30 2 1 1 32
M  V30 3 1 1 33
M  V30 4 1 1 34
M  V30 5 1 2 3
M  V30 6 1 2 35
M  V30 7 1 2 36
M  V30 8 1 3 4
M  V30 9 1 3 5
M  V30 10 1 3 10
M  V30 11 1 4 37
M  V30 12 2 5 6
M  V30 13 1 5 7
M  V30 14 1 7 8
M  V30 15 1 8 9
M  V30 16 1 8 38
M  V30 17 1 8 39
M  V30 18 1 9 10
M  V30 19 2 9 11
M  V30 20 2 10 15
M  V30 21 1 11 12
M  V30 22 1 11 13
M  V30 23 1 13 14
M  V30 24 1 13 18
M  V30 25 1 14 15
M  V30 26 2 14 16
M  V30 27 1 15 40
M  V30 28 1 16 17
M  V30 29 1 16 22
M  V30 30 1 17 18
M  V30 31 2 17 19
M  V30 32 1 18 41
M  V30 33 1 18 42
M  V30 34 1 19 20
M  V30 35 1 19 43
M  V30 36 1 20 21
M  V30 37 2 20 27
M  V30 38 2 21 22
M  V30 39 1 21 23
M  V30 40 2 23 24
M  V30 41 1 23 44
M  V30 42 1 24 25
M  V30 43 1 24 45
M  V30 44 2 25 26
M  V30 45 1 25 27
M  V30 46 1 27 28
M  V30 47 1 28 29
M  V30 48 1 28 46
M  V30 49 1 28 47
M  V30 50 1 29 30
M  V30 51 1 29 31
M  V30 52 1 30 48
M  V30 53 1 30 49
M  V30 54 1 30 50
M  V30 55 1 31 51
M  V30 56 1 31 52
M  V30 57 1 31 53
M  V30 END BOND
M  V30 END CTAB
M  END
> <s_m_entry_id>
997

> <s_m_entry_name>
result.6822

> <s_m_Source_Path>
D:\OneDrive - zju.edu.cn\DOC\A-Finished\LCK_VS\Planet\LCK-8617

> <s_m_Source_File>
glide-dock_SP_top1262_2_pv.maegz

> <i_m_Source_File_Index>
997

> <PLANET_affinity>
7.76

> <i_lp_mmshare_version>
54117

> <i_f3d_flags>
0

> <s_epik_input>
W0NIMl0xT0MoPU8pW0NAXShbT0hdKShbQ0gyXVtDSDNdKUMoQzE9Mik9W0NIXUMzPWM0YyhbQ0gyXU4zQzJbT0hdKVtjSF1jPTVjKG40KVtDSF09W0NIXUMoPU8pQzVbQ0gyXU4oW0NIM10pW0NIM10=

> <s_epik_cmdline>
J2VwaWtfcHl0aG9uJywgJy1waCcsICc3LjAnLCAnLXRuJywgJzgnLCAnLW1hJywgJzUwMCcsICctaW1hZScsICc8aW5maWxlLm1hZT4nLCAnLW9tYWUnLCAnPG91dGZpbGUubWFlPic=

> <r_epik_Ionization_Penalty>
  0.0015

> <r_epik_Ionization_Penalty_Charging>
  0.0000

> <r_epik_Ionization_Penalty_Neutral>
  0.0015

> <r_epik_State_Penalty>
  0.0010

> <r_epik_Charging_Adjusted_Penalty>
0.00101131

> <i_epik_Tot_Q>
-1

> <i_epik_Tot_abs_Q>
1

> <s_epik_Chemistry_Notes>
This compound has an ester and may undergo hydrolysis at high or low pH. This compound has an imine and may undergo hydrolysis.

> <s_lp_Force_Field>
S-OPLS

> <r_lp_Energy>
69.9388

> <b_lp_Chiralities_Consistent>
1

> <s_lp_Variant>
[H]Cl.O=C1[C@](O)(CC)C2=C(CO1)C(N3CC4=CC5=C(CN(C)C)C(O)=CC=C5N=C4C3=C2)=O-1

> <s_i_glide_gridfile>
glide-grid_1

> <i_i_glide_lignum>
1552

> <i_i_glide_rotatable_bonds>
4

> <r_i_docking_score>
-7.54949601304181

> <r_i_glide_ligand_efficiency>
-0.243532129452962

> <r_i_glide_ligand_efficiency_sa>
-0.765027118823512

> <r_i_glide_ligand_efficiency_ln>
-1.70264271520793

> <r_i_glide_gscore>
-7.55049601304181

> <r_i_glide_lipo>
-1.89517430392621

> <r_i_glide_hbond>
-0.896804911134818

> <r_i_glide_metal>
0

> <r_i_glide_rewards>
-1.02368532689369

> <r_i_glide_evdw>
-29.639799118042

> <r_i_glide_ecoul>
-15.5144395828247

> <r_i_glide_erotb>
0.111968367879658

> <r_i_glide_esite>
-0.0376439456409422

> <r_i_glide_emodel>
-60.9970475780478

> <r_i_glide_energy>
-45.1542387008667

> <r_i_glide_einternal>
5.61400651931763

> <i_i_glide_confnum>
2

> <i_i_glide_posenum>
337

> <r_i_glide_eff_state_penalty>
0.001

> <s_m_subgroup_title>
glide-dock_SP_top1262_2_pv

> <s_m_subgroupid>
glide-dock_SP_top1262_2_pv

> <b_m_subgroup_collapsed>
0

$$$$
OC[C@@H]1[C@H]([C@H]([C@H](N2C=NC3=C2N=CN=C3NC4=CC=C(CC(NC5=CC=C(CC(NCCN)=O)C...
                    3D
 Schrodinger Suite 2021-3.
  0  0  0     0  0            999 V3000
M  V30 BEGIN CTAB
M  V30 COUNTS 75 79 0 0 0
M  V30 BEGIN ATOM
M  V30 1 O  24.2966 45.5770 85.6476 0
M  V30 2 C  24.0386 44.9172 86.8730 0
M  V30 3 C  22.5476 44.5531 86.9764 0 CFG=2
M  V30 4 C  22.1136 43.9883 88.3477 0 CFG=1
M  V30 5 O  20.9213 44.5897 88.8439 0
M  V30 6 C  21.9812 42.4775 88.1163 0 CFG=1
M  V30 7 O  21.0034 41.8238 88.9053 0
M  V30 8 C  21.5378 42.4938 86.6647 0 CFG=1
M  V30 9 O  22.2990 43.4887 86.0594 0
M  V30 10 N  21.6849 41.2368 85.9692 0
M  V30 11 C  22.7949 40.7389 85.3216 0
M  V30 12 N  22.6533 39.5314 84.8397 0
M  V30 13 C  20.7626 40.2063 85.9363 0
M  V30 14 C  21.3890 39.1580 85.2207 0
M  V30 15 N  19.5232 40.1740 86.4385 0
M  V30 16 C  18.8578 39.0277 86.1457 0
M  V30 17 N  19.3207 37.9559 85.4512 0
M  V30 18 C  20.6104 37.9922 85.0255 0
M  V30 19 N  21.0369 36.8334 84.3660 0
M  V30 20 C  22.3203 36.3499 84.0728 0
M  V30 21 C  22.5066 35.5594 82.9371 0
M  V30 22 C  23.7851 35.1587 82.5665 0
M  V30 23 C  24.8846 35.5034 83.3579 0
M  V30 24 C  24.6813 36.1898 84.5595 0
M  V30 25 C  23.4044 36.6111 84.9134 0
M  V30 26 C  26.2987 35.1025 82.9310 0
M  V30 27 C  27.2919 36.2762 82.8731 0
M  V30 28 O  26.8803 37.4394 82.8435 0
M  V30 29 N  28.5985 35.9382 82.8429 0
M  V30 30 C  29.6886 36.8200 82.9022 0
M  V30 31 C  29.6558 38.0128 83.6400 0
M  V30 32 C  30.7382 38.8843 83.5994 0
M  V30 33 C  31.8750 38.5605 82.8488 0
M  V30 34 C  31.9237 37.3464 82.1566 0
M  V30 35 C  30.8394 36.4722 82.1947 0
M  V30 36 C  33.0352 39.5495 82.7042 0
M  V30 37 C  33.4528 40.2301 84.0154 0
M  V30 38 O  33.9142 39.5589 84.9368 0
M  V30 39 N  33.2796 41.5614 84.0934 0
M  V30 40 C  33.6186 42.3806 85.2584 0
M  V30 41 C  32.4786 42.4330 86.3022 0
M  V30 42 N  31.5584 43.6392 86.0437 0 CHG=1
M  V30 43 H  23.7875 45.1426 84.9494 0
M  V30 44 H  24.3143 45.6012 87.6785 0
M  V30 45 H  24.6690 44.0323 86.9771 0
M  V30 46 H  21.9525 45.4342 86.7201 0
M  V30 47 H  22.8870 44.1581 89.0997 0
M  V30 48 H  20.3164 44.7545 88.0955 0
M  V30 49 H  22.9567 41.9899 88.1775 0
M  V30 50 H  20.2527 42.4313 88.9374 0
M  V30 51 H  20.4834 42.7486 86.5946 0
M  V30 52 H  23.6781 41.3562 85.2345 0
M  V30 53 H  17.8367 38.9689 86.5019 0
M  V30 54 H  20.2658 36.3361 83.9596 0
M  V30 55 H  21.6771 35.3005 82.2994 0
M  V30 56 H  23.9075 34.6064 81.6479 0
M  V30 57 H  25.5157 36.4283 85.2037 0
M  V30 58 H  23.2690 37.1619 85.8311 0
M  V30 59 H  26.2863 34.6315 81.9511 0
M  V30 60 H  26.6640 34.3581 83.6357 0
M  V30 61 H  28.8290 34.9721 82.6694 0
M  V30 62 H  28.7883 38.2886 84.2203 0
M  V30 63 H  30.6803 39.8202 84.1374 0
M  V30 64 H  32.7914 37.0820 81.5705 0
M  V30 65 H  30.8855 35.5459 81.6377 0
M  V30 66 H  32.7461 40.2962 81.9621 0
M  V30 67 H  33.9141 39.0479 82.2993 0
M  V30 68 H  32.8304 42.0421 83.3218 0
M  V30 69 H  33.8961 43.3725 84.8969 0
M  V30 70 H  34.5261 41.9947 85.7323 0
M  V30 71 H  32.8357 42.5504 87.3286 0
M  V30 72 H  31.8128 41.5681 86.2473 0
M  V30 73 H  30.7492 43.6206 86.6472 0
M  V30 74 H  31.2490 43.6223 85.0715 0
M  V30 75 H  32.0587 44.5077 86.1842 0
M  V30 END ATOM
M  V30 BEGIN BOND
M  V30 1 1 1 2
M  V30 2 1 1 43
M  V30 3 1 2 3
M  V30 4 1 2 44
M  V30 5 1 2 45
M  V30 6 1 3 4
M  V30 7 1 3 9
M  V30 8 1 3 46
M  V30 9 1 4 5
M  V30 10 1 4 6
M  V30 11 1 4 47
M  V30 12 1 5 48
M  V30 13 1 6 7
M  V30 14 1 6 8
M  V30 15 1 6 49
M  V30 16 1 7 50
M  V30 17 1 8 9
M  V30 18 1 8 10
M  V30 19 1 8 51
M  V30 20 1 10 11
M  V30 21 1 10 13
M  V30 22 2 11 12
M  V30 23 1 11 52
M  V30 24 1 12 14
M  V30 25 2 13 14
M  V30 26 1 13 15
M  V30 27 1 14 18
M  V30 28 2 15 16
M  V30 29 1 16 17
M  V30 30 1 16 53
M  V30 31 2 17 18
M  V30 32 1 18 19
M  V30 33 1 19 20
M  V30 34 1 19 54
M  V30 35 2 20 21
M  V30 36 1 20 25
M  V30 37 1 21 22
M  V30 38 1 21 55
M  V30 39 2 22 23
M  V30 40 1 22 56
M  V30 41 1 23 24
M  V30 42 1 23 26
M  V30 43 2 24 25
M  V30 44 1 24 57
M  V30 45 1 25 58
M  V30 46 1 26 27
M  V30 47 1 26 59
M  V30 48 1 26 60
M  V30 49 2 27 28
M  V30 50 1 27 29
M  V30 51 1 29 30
M  V30 52 1 29 61
M  V30 53 2 30 31
M  V30 54 1 30 35
M  V30 55 1 31 32
M  V30 56 1 31 62
M  V30 57 2 32 33
M  V30 58 1 32 63
M  V30 59 1 33 34
M  V30 60 1 33 36
M  V30 61 2 34 35
M  V30 62 1 34 64
M  V30 63 1 35 65
M  V30 64 1 36 37
M  V30 65 1 36 66
M  V30 66 1 36 67
M  V30 67 2 37 38
M  V30 68 1 37 39
M  V30 69 1 39 40
M  V30 70 1 39 68
M  V30 71 1 40 41
M  V30 72 1 40 69
M  V30 73 1 40 70
M  V30 74 1 41 42
M  V30 75 1 41 71
M  V30 76 1 41 72
M  V30 77 1 42 73
M  V30 78 1 42 74
M  V30 79 1 42 75
M  V30 END BOND
M  V30 END CTAB
M  END
> <s_m_entry_id>
998

> <s_m_entry_name>
result.4206

> <s_m_Source_Path>
D:\OneDrive - zju.edu.cn\DOC\A-Finished\LCK_VS\Planet\LCK-8617

> <s_m_Source_File>
glide-dock_SP_top1262_2_pv.maegz

> <i_m_Source_File_Index>
998

> <PLANET_affinity>
7.011

> <i_lp_mmshare_version>
54117

> <i_f3d_flags>
0

> <s_epik_input>
W09IXVtDSDJdW0NAQEhdMVtDQEBIXShbT0hdKVtDQEBIXShbT0hdKVtDQEBIXShPMSluMltjSF1uYyhjMjMpYyhuW2NIXW4zKVtOSF1jNFtjSF1bY0hdYyhbY0hdW2NIXTQpW0NIMl1DKD1PKVtOSF1jNVtjSF1bY0hdYyhbY0hdW2NIXTUpW0NIMl1DKD1PKVtOSF1bQ0gyXVtDSDJdW05IMl0=

> <s_epik_cmdline>
J2VwaWtfcHl0aG9uJywgJy1waCcsICc3LjAnLCAnLXRuJywgJzgnLCAnLW1hJywgJzUwMCcsICctaW1hZScsICc8aW5maWxlLm1hZT4nLCAnLW9tYWUnLCAnPG91dGZpbGUubWFlPic=

> <r_epik_Ionization_Penalty>
  0.0026

> <r_epik_Ionization_Penalty_Charging>
  0.0021

> <r_epik_Ionization_Penalty_Neutral>
  0.0006

> <r_epik_State_Penalty>
  0.0000

> <r_epik_Charging_Adjusted_Penalty>
0.00208639

> <i_epik_Tot_Q>
1

> <i_epik_Tot_abs_Q>
1

> <s_epik_Chemistry_Notes>
This compound contains an acetal/aminal-like group ( X-CH(R)-Y where X, Y are N, S, or O) that may be acid/base labile, releasing an aldehyde.

> <s_lp_Force_Field>
S-OPLS

> <r_lp_Energy>
47.8574

> <b_lp_Chiralities_Consistent>
1

> <s_lp_Variant>
OC[C@@H]1[C@H]([C@H]([C@H](N2C=NC3=C2N=CN=C3NC4=CC=C(CC(NC5=CC=C(CC(NCCN)=O)C...-1

> <s_i_glide_gridfile>
glide-grid_1

> <i_i_glide_lignum>
2707

> <i_i_glide_rotatable_bonds>
16

> <r_i_docking_score>
-7.54943769350852

> <r_i_glide_ligand_efficiency>
-0.179748516512108

> <r_i_glide_ligand_efficiency_sa>
-0.624810631996453

> <r_i_glide_ligand_efficiency_ln>
-1.5934918011957

> <r_i_glide_gscore>
-7.54943769350852

> <r_i_glide_lipo>
-2.63604911265838

> <r_i_glide_hbond>
-0.226954749267651

> <r_i_glide_metal>
0

> <r_i_glide_rewards>
-0.308973254874916

> <r_i_glide_evdw>
-47.4319839477539

> <r_i_glide_ecoul>
-16.2133522033691

> <r_i_glide_erotb>
0.65399258093328

> <r_i_glide_esite>
-0.227851129747787

> <r_i_glide_emodel>
-93.2360333034702

> <r_i_glide_energy>
-63.645336151123

> <r_i_glide_einternal>
17.016357421875

> <i_i_glide_confnum>
539

> <i_i_glide_posenum>
279

> <r_i_glide_eff_state_penalty>
0

> <r_lp_tautomer_probability>
1

> <s_m_subgroup_title>
glide-dock_SP_top1262_2_pv

> <s_m_subgroupid>
glide-dock_SP_top1262_2_pv

> <b_m_subgroup_collapsed>
0

$$$$
O=C(N1CCC(C2=NN(CC)C(C3=NC(C4=NN=C(C(C)(C)C)O4)=C(N)N=C3)=N2)CC1)CCO
                    3D
 Schrodinger Suite 2021-3.
  0  0  0     0  0            999 V3000
M  V30 BEGIN CTAB
M  V30 COUNTS 65 68 0 0 0
M  V30 BEGIN ATOM
M  V30 1 O  35.3313 30.7479 83.6434 0
M  V30 2 C  34.3793 31.4904 82.9092 0
M  V30 3 C  34.3907 32.9833 83.3183 0
M  V30 4 C  33.7457 33.9289 82.2794 0
M  V30 5 O  33.2901 33.4441 81.2439 0
M  V30 6 N  33.8579 35.2732 82.4414 0
M  V30 7 C  33.9750 35.8995 83.7660 0
M  V30 8 C  32.5412 36.2441 84.2430 0
M  V30 9 C  31.7067 37.0538 83.2068 0
M  V30 10 C  31.8921 36.5495 81.7511 0
M  V30 11 C  33.3569 36.1934 81.4070 0
M  V30 12 C  30.2638 37.3427 83.6059 0
M  V30 13 N  29.9436 38.4223 84.2844 0
M  V30 14 N  28.6132 38.3244 84.3676 0
M  V30 15 C  27.8619 39.3926 85.0279 0
M  V30 16 C  27.7446 39.1381 86.5398 0
M  V30 17 C  28.1965 37.1559 83.7619 0
M  V30 18 N  29.2575 36.5435 83.2799 0
M  V30 19 C  26.7976 36.6115 83.6418 0
M  V30 20 N  25.8192 37.1455 84.4235 0
M  V30 21 C  24.5454 36.6705 84.3053 0
M  V30 22 C  24.2569 35.6517 83.3757 0
M  V30 23 N  22.9673 35.1567 83.1896 0
M  V30 24 N  25.2300 35.1044 82.6066 0
M  V30 25 C  26.4930 35.5750 82.7542 0
M  V30 26 C  23.5449 37.3343 85.2081 0
M  V30 27 N  23.7447 38.2929 86.0838 0
M  V30 28 N  22.5026 38.5817 86.6419 0
M  V30 29 C  21.6418 37.7847 86.0545 0
M  V30 30 O  22.2385 36.9615 85.1549 0
M  V30 31 C  20.1299 37.6590 86.2748 0
M  V30 32 C  19.5808 38.8670 87.0719 0
M  V30 33 C  19.8442 36.3635 87.0666 0
M  V30 34 C  19.4011 37.6023 84.9118 0
M  V30 35 H  35.1412 30.8337 84.5972 0
M  V30 36 H  33.3912 31.0606 83.0804 0
M  V30 37 H  34.6150 31.3572 81.8520 0
M  V30 38 H  35.4213 33.3092 83.4637 0
M  V30 39 H  33.8781 33.0928 84.2743 0
M  V30 40 H  34.5558 36.8132 83.6329 0
M  V30 41 H  34.5682 35.3173 84.4729 0
M  V30 42 H  32.6330 36.7994 85.1773 0
M  V30 43 H  32.0616 35.2858 84.4430 0
M  V30 44 H  32.2621 37.9942 83.1710 0
M  V30 45 H  31.3111 35.6385 81.5994 0
M  V30 46 H  31.5620 37.3038 81.0369 0
M  V30 47 H  33.9823 37.0866 81.4388 0
M  V30 48 H  33.5079 35.8026 80.3988 0
M  V30 49 H  28.3690 40.3422 84.8465 0
M  V30 50 H  26.8818 39.4841 84.5611 0
M  V30 51 H  27.1340 39.9065 87.0145 0
M  V30 52 H  27.2789 38.1743 86.7523 0
M  V30 53 H  28.7235 39.1561 87.0220 0
M  V30 54 H  22.2345 35.5227 83.7805 0
M  V30 55 H  22.7732 34.4215 82.5179 0
M  V30 56 H  27.2550 35.1138 82.1442 0
M  V30 57 H  18.5069 38.7872 87.2498 0
M  V30 58 H  19.7541 39.8048 86.5425 0
M  V30 59 H  20.0654 38.9591 88.0429 0
M  V30 60 H  20.2116 35.4816 86.5400 0
M  V30 61 H  20.3360 36.3783 88.0401 0
M  V30 62 H  18.7771 36.2205 87.2431 0
M  V30 63 H  19.7190 36.7453 84.3160 0
M  V30 64 H  18.3191 37.5307 85.0361 0
M  V30 65 H  19.6046 38.4939 84.3149 0
M  V30 END ATOM
M  V30 BEGIN BOND
M  V30 1 1 1 2
M  V30 2 1 1 35
M  V30 3 1 2 3
M  V30 4 1 2 36
M  V30 5 1 2 37
M  V30 6 1 3 4
M  V30 7 1 3 38
M  V30 8 1 3 39
M  V30 9 2 4 5
M  V30 10 1 4 6
M  V30 11 1 6 7
M  V30 12 1 6 11
M  V30 13 1 7 8
M  V30 14 1 7 40
M  V30 15 1 7 41
M  V30 16 1 8 9
M  V30 17 1 8 42
M  V30 18 1 8 43
M  V30 19 1 9 10
M  V30 20 1 9 12
M  V30 21 1 9 44
M  V30 22 1 10 11
M  V30 23 1 10 45
M  V30 24 1 10 46
M  V30 25 1 11 47
M  V30 26 1 11 48
M  V30 27 2 12 13
M  V30 28 1 12 18
M  V30 29 1 13 14
M  V30 30 1 14 15
M  V30 31 1 14 17
M  V30 32 1 15 16
M  V30 33 1 15 49
M  V30 34 1 15 50
M  V30 35 1 16 51
M  V30 36 1 16 52
M  V30 37 1 16 53
M  V30 38 2 17 18
M  V30 39 1 17 19
M  V30 40 2 19 20
M  V30 41 1 19 25
M  V30 42 1 20 21
M  V30 43 2 21 22
M  V30 44 1 21 26
M  V30 45 1 22 23
M  V30 46 1 22 24
M  V30 47 1 23 54
M  V30 48 1 23 55
M  V30 49 2 24 25
M  V30 50 1 25 56
M  V30 51 2 26 27
M  V30 52 1 26 30
M  V30 53 1 27 28
M  V30 54 2 28 29
M  V30 55 1 29 30
M  V30 56 1 29 31
M  V30 57 1 31 32
M  V30 58 1 31 33
M  V30 59 1 31 34
M  V30 60 1 32 57
M  V30 61 1 32 58
M  V30 62 1 32 59
M  V30 63 1 33 60
M  V30 64 1 33 61
M  V30 65 1 33 62
M  V30 66 1 34 63
M  V30 67 1 34 64
M  V30 68 1 34 65
M  V30 END BOND
M  V30 END CTAB
M  END
> <s_m_entry_id>
1002

> <s_m_entry_name>
result.3746

> <s_m_Source_Path>
D:\OneDrive - zju.edu.cn\DOC\A-Finished\LCK_VS\Planet\LCK-8617

> <s_m_Source_File>
glide-dock_SP_top1262_2_pv.maegz

> <i_m_Source_File_Index>
1002

> <PLANET_affinity>
7.781

> <i_lp_mmshare_version>
54117

> <i_f3d_flags>
0

> <s_epik_input>
W09IXVtDSDJdW0NIMl1DKD1PKU4xW0NIMl1bQ0gyXVtDSF0oW0NIMl1bQ0gyXTEpYzJubihbQ0gyXVtDSDNdKWMobjIpLWMzbmMoYyhbTkgyXSluW2NIXTMpLWM0bm5jKG80KUMoW0NIM10pKFtDSDNdKVtDSDNd

> <s_epik_cmdline>
J2VwaWtfcHl0aG9uJywgJy1waCcsICc3LjAnLCAnLXRuJywgJzgnLCAnLW1hJywgJzUwMCcsICctaW1hZScsICc8aW5maWxlLm1hZT4nLCAnLW9tYWUnLCAnPG91dGZpbGUubWFlPic=

> <r_epik_Ionization_Penalty>
  0.0000

> <r_epik_Ionization_Penalty_Charging>
  0.0000

> <r_epik_Ionization_Penalty_Neutral>
  0.0000

> <r_epik_State_Penalty>
  0.0000

> <r_epik_Charging_Adjusted_Penalty>
0

> <i_epik_Tot_Q>
0

> <i_epik_Tot_abs_Q>
0

> <s_lp_Force_Field>
S-OPLS

> <r_lp_Energy>
25.6669

> <b_lp_Chiralities_Consistent>
1

> <s_lp_Variant>
O=C(N1CCC(C2=NN(CC)C(C3=NC(C4=NN=C(C(C)(C)C)O4)=C(N)N=C3)=N2)CC1)CCO-1

> <s_i_glide_gridfile>
glide-grid_1

> <i_i_glide_lignum>
1534

> <i_i_glide_rotatable_bonds>
9

> <r_i_docking_score>
-7.54839421455835

> <r_i_glide_ligand_efficiency>
-0.222011594545834

> <r_i_glide_ligand_efficiency_sa>
-0.719231380865692

> <r_i_glide_ligand_efficiency_ln>
-1.66765200728204

> <r_i_glide_gscore>
-7.54839421455835

> <r_i_glide_lipo>
-2.36736476629425

> <r_i_glide_hbond>
-0.657479609277041

> <r_i_glide_metal>
0

> <r_i_glide_rewards>
-1.74976979213376

> <r_i_glide_evdw>
-42.2514114379883

> <r_i_glide_ecoul>
-6.9732985496521

> <r_i_glide_erotb>
0.384785307493933

> <r_i_glide_esite>
0

> <r_i_glide_emodel>
-69.9662838840346

> <r_i_glide_energy>
-49.2247099876404

> <r_i_glide_einternal>
5.36030292510986

> <i_i_glide_confnum>
78

> <i_i_glide_posenum>
189

> <r_i_glide_eff_state_penalty>
0

> <r_lp_tautomer_probability>
1

> <s_m_subgroup_title>
glide-dock_SP_top1262_2_pv

> <s_m_subgroupid>
glide-dock_SP_top1262_2_pv

> <b_m_subgroup_collapsed>
0

$$$$
O=C(NC1=CC=CC(NC2=NC=C(Cl)C(C3=CNC4=C3C=CC=C4)=N2)=C1)C5=CC=CC(NC(/C=C/CN(C)C...
                    3D
 Schrodinger Suite 2021-3.
  0  0  0     0  0            999 V3000
M  V30 BEGIN CTAB
M  V30 COUNTS 70 74 0 0 0
M  V30 BEGIN ATOM
M  V30 1 C  21.3407 47.9990 87.9518 0
M  V30 2 N  21.6830 46.5516 87.5440 0 CHG=1
M  V30 3 C  22.7696 46.5018 86.4493 0
M  V30 4 C  22.0100 45.6368 88.7439 0
M  V30 5 C  21.6696 44.1912 88.4460 0
M  V30 6 C  22.5651 43.2086 88.2079 0
M  V30 7 C  22.2125 41.8321 87.9347 0
M  V30 8 O  22.9919 40.9217 88.2225 0
M  V30 9 N  21.0041 41.6341 87.3537 0
M  V30 10 C  20.4622 40.3997 86.9670 0
M  V30 11 C  21.2191 39.4210 86.3106 0
M  V30 12 C  19.1058 40.1755 87.1927 0
M  V30 13 C  18.5184 38.9693 86.8158 0
M  V30 14 C  19.2754 37.9933 86.1773 0
M  V30 15 C  20.6330 38.2090 85.9014 0
M  V30 16 C  21.4082 37.1790 85.1166 0
M  V30 17 O  20.8036 36.3566 84.4266 0
M  V30 18 N  22.7523 37.2656 85.2253 0
M  V30 19 C  23.7477 36.6575 84.4465 0
M  V30 20 C  23.5213 35.6179 83.5345 0
M  V30 21 C  24.5607 35.1565 82.7378 0
M  V30 22 C  25.8348 35.7100 82.8420 0
M  V30 23 C  26.0877 36.7288 83.7699 0
M  V30 24 C  25.0357 37.1889 84.5675 0
M  V30 25 N  27.3369 37.3556 83.9246 0
M  V30 26 C  28.6247 37.0739 83.4496 0
M  V30 27 N  28.8848 35.8877 82.8434 0
M  V30 28 C  30.1484 35.6962 82.3901 0
M  V30 29 C  31.1509 36.6552 82.5292 0
M  V30 30 Cl 32.7524 36.2934 81.9853 0
M  V30 31 C  30.7948 37.8591 83.1611 0
M  V30 32 N  29.5359 38.0608 83.6436 0
M  V30 33 C  31.7052 39.0300 83.3358 0
M  V30 34 C  31.8473 39.7881 84.4863 0
M  V30 35 N  32.7989 40.7562 84.2991 0
M  V30 36 C  32.5959 39.6211 82.3636 0
M  V30 37 C  33.2962 40.6830 83.0168 0
M  V30 38 C  32.8747 39.3833 81.0051 0
M  V30 39 C  33.8344 40.1560 80.3553 0
M  V30 40 C  34.5257 41.1566 81.0305 0
M  V30 41 C  34.2749 41.4481 82.3728 0
M  V30 42 H  22.2269 48.4441 88.4064 0
M  V30 43 H  20.5060 47.9505 88.6527 0
M  V30 44 H  21.0359 48.5299 87.0493 0
M  V30 45 H  23.7110 46.8430 86.8835 0
M  V30 46 H  22.8389 45.4694 86.0995 0
M  V30 47 H  22.4466 47.1569 85.6419 0
M  V30 48 H  23.0598 45.7973 88.9945 0
M  V30 49 H  21.3945 45.9771 89.5784 0
M  V30 50 H  20.6068 43.9797 88.4439 0
M  V30 51 H  23.6267 43.4073 88.2316 0
M  V30 52 H  20.3991 42.4372 87.2434 0
M  V30 53 H  22.2549 39.6361 86.0886 0
M  V30 54 H  18.4842 40.9343 87.6487 0
M  V30 55 H  17.4669 38.7992 87.0026 0
M  V30 56 H  18.7845 37.0782 85.8754 0
M  V30 57 H  23.0941 37.9499 85.8799 0
M  V30 58 H  22.5550 35.1538 83.4099 0
M  V30 59 H  24.3602 34.3575 82.0435 0
M  V30 60 H  26.6034 35.3384 82.1840 0
M  V30 61 H  25.2191 37.9924 85.2667 0
M  V30 62 H  27.2991 38.2346 84.4168 0
M  V30 63 H  30.3544 34.7561 81.9019 0
M  V30 64 H  31.3523 39.7007 85.4431 0
M  V30 65 H  33.0553 41.4187 85.0171 0
M  V30 66 H  32.3429 38.6179 80.4587 0
M  V30 67 H  34.0407 39.9759 79.3098 0
M  V30 68 H  35.2622 41.7383 80.4934 0
M  V30 69 H  34.7998 42.2461 82.8775 0
M  V30 70 H  20.8308 46.1537 87.1355 0
M  V30 END ATOM
M  V30 BEGIN BOND
M  V30 1 1 1 2
M  V30 2 1 1 42
M  V30 3 1 1 43
M  V30 4 1 1 44
M  V30 5 1 2 3
M  V30 6 1 2 4
M  V30 7 1 2 70
M  V30 8 1 3 45
M  V30 9 1 3 46
M  V30 10 1 3 47
M  V30 11 1 4 5
M  V30 12 1 4 48
M  V30 13 1 4 49
M  V30 14 2 5 6
M  V30 15 1 5 50
M  V30 16 1 6 7
M  V30 17 1 6 51
M  V30 18 2 7 8
M  V30 19 1 7 9
M  V30 20 1 9 10
M  V30 21 1 9 52
M  V30 22 2 10 11
M  V30 23 1 10 12
M  V30 24 1 11 15
M  V30 25 1 11 53
M  V30 26 2 12 13
M  V30 27 1 12 54
M  V30 28 1 13 14
M  V30 29 1 13 55
M  V30 30 2 14 15
M  V30 31 1 14 56
M  V30 32 1 15 16
M  V30 33 2 16 17
M  V30 34 1 16 18
M  V30 35 1 18 19
M  V30 36 1 18 57
M  V30 37 2 19 20
M  V30 38 1 19 24
M  V30 39 1 20 21
M  V30 40 1 20 58
M  V30 41 2 21 22
M  V30 42 1 21 59
M  V30 43 1 22 23
M  V30 44 1 22 60
M  V30 45 2 23 24
M  V30 46 1 23 25
M  V30 47 1 24 61
M  V30 48 1 25 26
M  V30 49 1 25 62
M  V30 50 2 26 27
M  V30 51 1 26 32
M  V30 52 1 27 28
M  V30 53 2 28 29
M  V30 54 1 28 63
M  V30 55 1 29 30
M  V30 56 1 29 31
M  V30 57 2 31 32
M  V30 58 1 31 33
M  V30 59 2 33 34
M  V30 60 1 33 36
M  V30 61 1 34 35
M  V30 62 1 34 64
M  V30 63 1 35 37
M  V30 64 1 35 65
M  V30 65 2 36 37
M  V30 66 1 36 38
M  V30 67 1 37 41
M  V30 68 2 38 39
M  V30 69 1 38 66
M  V30 70 1 39 40
M  V30 71 1 39 67
M  V30 72 2 40 41
M  V30 73 1 40 68
M  V30 74 1 41 69
M  V30 END BOND
M  V30 END CTAB
M  END
> <s_m_entry_id>
1006

> <s_m_entry_name>
result.472

> <s_m_Source_Path>
D:\OneDrive - zju.edu.cn\DOC\A-Finished\LCK_VS\Planet\LCK-8617

> <s_m_Source_File>
glide-dock_SP_top1262_2_pv.maegz

> <i_m_Source_File_Index>
1006

> <PLANET_affinity>
7.58

> <i_lp_mmshare_version>
54117

> <i_f3d_flags>
0

> <s_epik_input>
W0NIM11OKFtDSDNdKVtDSDJdL1tDSF09W0NIXS9DKD1PKVtOSF1jMVtjSF1jKFtjSF1bY0hdW2NIXTEpQyg9TylbTkhdYzJbY0hdW2NIXVtjSF1jKFtjSF0yKVtOSF1jM25bY0hdYyhDbCljKG4zKS1jNFtjSF1bbkhdYyhjNDUpW2NIXVtjSF1bY0hdW2NIXTU=

> <s_epik_cmdline>
J2VwaWtfcHl0aG9uJywgJy1waCcsICc3LjAnLCAnLXRuJywgJzgnLCAnLW1hJywgJzUwMCcsICctaW1hZScsICc8aW5maWxlLm1hZT4nLCAnLW9tYWUnLCAnPG91dGZpbGUubWFlPic=

> <r_epik_Ionization_Penalty>
  0.1646

> <r_epik_Ionization_Penalty_Charging>
  0.1646

> <r_epik_Ionization_Penalty_Neutral>
  0.0000

> <r_epik_State_Penalty>
  0.1828

> <r_epik_Charging_Adjusted_Penalty>
0.347365

> <i_epik_Tot_Q>
1

> <i_epik_Tot_abs_Q>
1

> <s_lp_Force_Field>
S-OPLS

> <r_lp_Energy>
73.0576

> <b_lp_Chiralities_Consistent>
1

> <s_lp_Variant>
O=C(NC1=CC=CC(NC2=NC=C(Cl)C(C3=CNC4=C3C=CC=C4)=N2)=C1)C5=CC=CC(NC(/C=C/CN(C)C...-1

> <s_i_glide_gridfile>
glide-grid_1

> <i_i_glide_lignum>
1814

> <i_i_glide_rotatable_bonds>
11

> <r_i_docking_score>
-7.54502547319921

> <r_i_glide_ligand_efficiency>
-0.184025011541444

> <r_i_glide_ligand_efficiency_sa>
-0.634558216673346

> <r_i_glide_ligand_efficiency_ln>
-1.60070226283283

> <r_i_glide_gscore>
-7.72782547319921

> <r_i_glide_lipo>
-2.69382639862574

> <r_i_glide_hbond>
-0.52

> <r_i_glide_metal>
0

> <r_i_glide_rewards>
-0.435967062980842

> <r_i_glide_evdw>
-51.3526153564453

> <r_i_glide_ecoul>
-12.4758672714233

> <r_i_glide_erotb>
0.560827122879574

> <r_i_glide_esite>
-0.199848275936437

> <r_i_glide_emodel>
-93.2489425369332

> <r_i_glide_energy>
-63.8284826278687

> <r_i_glide_einternal>
14.0520935058594

> <i_i_glide_confnum>
272

> <i_i_glide_posenum>
367

> <r_i_glide_eff_state_penalty>
0.1828

> <r_lp_tautomer_probability>
1

> <s_m_subgroup_title>
glide-dock_SP_top1262_2_pv

> <s_m_subgroupid>
glide-dock_SP_top1262_2_pv

> <b_m_subgroup_collapsed>
0

$$$$
NC1=NC=CC2=C1N=C(SC3=C(N(C)C)C=C(OCO4)C4=C3)N2CCNCC(C)(C)C
                    3D
 Schrodinger Suite 2021-3.
  0  0  0     0  0            999 V3000
M  V30 BEGIN CTAB
M  V30 COUNTS 62 65 0 0 0
M  V30 BEGIN ATOM
M  V30 1 C  28.5006 41.5559 89.1205 0
M  V30 2 C  26.9710 41.7498 89.2864 0
M  V30 3 C  26.4757 41.1759 90.6401 0
M  V30 4 C  26.6866 43.2692 89.2819 0
M  V30 5 C  26.2070 41.1131 88.0947 0
M  V30 6 N  26.3637 39.5724 88.0320 0 CHG=1
M  V30 7 C  27.1746 39.0215 86.8428 0
M  V30 8 C  26.4698 39.2708 85.4888 0
M  V30 9 N  25.4688 38.2542 85.1510 0
M  V30 10 C  24.1524 38.1666 85.5846 0
M  V30 11 N  23.4824 37.2214 84.9727 0
M  V30 12 C  24.3767 36.6398 84.1189 0
M  V30 13 C  25.6566 37.2208 84.2510 0
M  V30 14 C  24.2034 35.6362 83.1543 0
M  V30 15 N  22.9330 35.1567 82.8497 0
M  V30 16 N  25.2520 35.1565 82.4435 0
M  V30 17 C  26.4813 35.6966 82.6413 0
M  V30 18 C  26.7520 36.7547 83.5131 0
M  V30 19 S  23.4352 39.2143 86.8128 0
M  V30 20 C  21.7008 38.9131 86.6056 0
M  V30 21 C  20.8714 39.7933 85.8604 0
M  V30 22 C  19.4991 39.5243 85.7659 0
M  V30 23 N  21.3224 40.9504 85.1949 0
M  V30 24 C  22.1349 40.7359 84.0045 0
M  V30 25 C  21.6836 42.0765 86.0489 0
M  V30 26 C  21.1547 37.7893 87.2489 0
M  V30 27 C  19.7841 37.5837 87.1521 0
M  V30 28 C  18.9847 38.4200 86.4316 0
M  V30 29 O  19.0244 36.5953 87.6931 0
M  V30 30 C  17.6966 37.0062 87.4973 0
M  V30 31 O  17.7044 37.9687 86.4778 0
M  V30 32 H  29.0505 41.9139 89.9924 0
M  V30 33 H  28.8782 42.1097 88.2599 0
M  V30 34 H  28.7843 40.5170 88.9554 0
M  V30 35 H  25.4446 41.4724 90.8384 0
M  V30 36 H  26.4872 40.0873 90.6823 0
M  V30 37 H  27.0760 41.5423 91.4744 0
M  V30 38 H  25.6223 43.4834 89.3952 0
M  V30 39 H  27.2054 43.7779 90.0958 0
M  V30 40 H  27.0111 43.7411 88.3526 0
M  V30 41 H  25.1291 41.2681 88.1773 0
M  V30 42 H  26.5300 41.5242 87.1374 0
M  V30 43 H  26.7832 39.2644 88.8986 0
M  V30 44 H  28.1536 39.5005 86.9081 0
M  V30 45 H  27.2854 37.9559 87.0514 0
M  V30 46 H  25.9976 40.2509 85.4171 0
M  V30 47 H  27.2204 39.2683 84.6969 0
M  V30 48 H  22.1530 35.4807 83.4006 0
M  V30 49 H  22.7967 34.4100 82.1745 0
M  V30 50 H  27.2780 35.2744 82.0435 0
M  V30 51 H  27.7440 37.1734 83.6027 0
M  V30 52 H  18.8695 40.1866 85.2011 0
M  V30 53 H  21.6930 39.9572 83.3848 0
M  V30 54 H  22.1815 41.6450 83.4041 0
M  V30 55 H  23.1516 40.4352 84.2509 0
M  V30 56 H  20.9315 42.2340 86.8230 0
M  V30 57 H  22.6434 41.9217 86.5422 0
M  V30 58 H  21.7408 42.9962 85.4640 0
M  V30 59 H  21.7793 37.1180 87.8184 0
M  V30 60 H  17.0540 36.1652 87.2397 0
M  V30 61 H  17.3086 37.4629 88.4123 0
M  V30 62 H  25.4371 39.1631 87.9865 0
M  V30 END ATOM
M  V30 BEGIN BOND
M  V30 1 1 1 2
M  V30 2 1 1 32
M  V30 3 1 1 33
M  V30 4 1 1 34
M  V30 5 1 2 3
M  V30 6 1 2 4
M  V30 7 1 2 5
M  V30 8 1 3 35
M  V30 9 1 3 36
M  V30 10 1 3 37
M  V30 11 1 4 38
M  V30 12 1 4 39
M  V30 13 1 4 40
M  V30 14 1 5 6
M  V30 15 1 5 41
M  V30 16 1 5 42
M  V30 17 1 6 7
M  V30 18 1 6 43
M  V30 19 1 6 62
M  V30 20 1 7 8
M  V30 21 1 7 44
M  V30 22 1 7 45
M  V30 23 1 8 9
M  V30 24 1 8 46
M  V30 25 1 8 47
M  V30 26 1 9 10
M  V30 27 1 9 13
M  V30 28 2 10 11
M  V30 29 1 10 19
M  V30 30 1 11 12
M  V30 31 2 12 13
M  V30 32 1 12 14
M  V30 33 1 13 18
M  V30 34 1 14 15
M  V30 35 2 14 16
M  V30 36 1 15 48
M  V30 37 1 15 49
M  V30 38 1 16 17
M  V30 39 2 17 18
M  V30 40 1 17 50
M  V30 41 1 18 51
M  V30 42 1 19 20
M  V30 43 2 20 21
M  V30 44 1 20 26
M  V30 45 1 21 22
M  V30 46 1 21 23
M  V30 47 2 22 28
M  V30 48 1 22 52
M  V30 49 1 23 24
M  V30 50 1 23 25
M  V30 51 1 24 53
M  V30 52 1 24 54
M  V30 53 1 24 55
M  V30 54 1 25 56
M  V30 55 1 25 57
M  V30 56 1 25 58
M  V30 57 2 26 27
M  V30 58 1 26 59
M  V30 59 1 27 28
M  V30 60 1 27 29
M  V30 61 1 28 31
M  V30 62 1 29 30
M  V30 63 1 30 31
M  V30 64 1 30 60
M  V30 65 1 30 61
M  V30 END BOND
M  V30 END CTAB
M  END
> <s_m_entry_id>
1007

> <s_m_entry_name>
result.8378

> <s_m_Source_Path>
D:\OneDrive - zju.edu.cn\DOC\A-Finished\LCK_VS\Planet\LCK-8617

> <s_m_Source_File>
glide-dock_SP_top1262_2_pv.maegz

> <i_m_Source_File_Index>
1007

> <PLANET_affinity>
7.379

> <i_lp_mmshare_version>
54117

> <i_f3d_flags>
0

> <s_epik_input>
W0NIM11DKFtDSDNdKShbQ0gzXSlbQ0gyXVtOSF1bQ0gyXVtDSDJdbihjKGMxMilbY0hdW2NIXW5jMltOSDJdKWMobjEpU2MoW2NIXTMpYyhOKFtDSDNdKVtDSDNdKVtjSF1jKGMzNClPW0NIMl1PNA==

> <s_epik_cmdline>
J2VwaWtfcHl0aG9uJywgJy1waCcsICc3LjAnLCAnLXRuJywgJzgnLCAnLW1hJywgJzUwMCcsICctaW1hZScsICc8aW5maWxlLm1hZT4nLCAnLW9tYWUnLCAnPG91dGZpbGUubWFlPic=

> <r_epik_Ionization_Penalty>
  0.1001

> <r_epik_Ionization_Penalty_Charging>
  0.0965

> <r_epik_Ionization_Penalty_Neutral>
  0.0035

> <r_epik_State_Penalty>
  0.0856

> <r_epik_Charging_Adjusted_Penalty>
0.182143

> <i_epik_Tot_Q>
1

> <i_epik_Tot_abs_Q>
1

> <s_epik_Chemistry_Notes>
This compound contains an acetal/aminal-like group ( X-CH(R)-Y where X, Y are N, S, or O) that may be acid/base labile, releasing an aldehyde.

> <s_lp_Force_Field>
S-OPLS

> <r_lp_Energy>
62.7014

> <b_lp_Chiralities_Consistent>
1

> <s_lp_Variant>
NC1=NC=CC2=C1N=C(SC3=C(N(C)C)C=C(OCO4)C4=C3)N2CCNCC(C)(C)C-1

> <s_i_glide_gridfile>
glide-grid_1

> <i_i_glide_lignum>
2133

> <i_i_glide_rotatable_bonds>
8

> <r_i_docking_score>
-7.54314055831973

> <r_i_glide_ligand_efficiency>
-0.243327114784507

> <r_i_glide_ligand_efficiency_sa>
-0.764383089711311

> <r_i_glide_ligand_efficiency_ln>
-1.70120936539681

> <r_i_glide_gscore>
-7.62874055831973

> <r_i_glide_lipo>
-2.41026831572259

> <r_i_glide_hbond>
-0.601294773776733

> <r_i_glide_metal>
0

> <r_i_glide_rewards>
-2.16941451773425

> <r_i_glide_evdw>
-42.0170593261719

> <r_i_glide_ecoul>
-5.15769910812378

> <r_i_glide_erotb>
0.426744881440996

> <r_i_glide_esite>
0

> <r_i_glide_emodel>
-70.5315516429678

> <r_i_glide_energy>
-47.1747584342957

> <r_i_glide_einternal>
7.9590220451355

> <i_i_glide_confnum>
44

> <i_i_glide_posenum>
141

> <r_i_glide_eff_state_penalty>
0.0856

> <r_lp_tautomer_probability>
1

> <s_m_subgroup_title>
glide-dock_SP_top1262_2_pv

> <s_m_subgroupid>
glide-dock_SP_top1262_2_pv

> <b_m_subgroup_collapsed>
0

$$$$
ClC1=CC(C2=NN(C(C3=CC4=C(C=C3)C=C(OC)C=C4)=C2)[C@H](C5=CC=C(C=C5)C(NCCC(O)=O)...
                    3D
 Schrodinger Suite 2021-3.
  0  0  0     0  0            999 V3000
M  V30 BEGIN CTAB
M  V30 COUNTS 67 71 0 0 0
M  V30 BEGIN ATOM
M  V30 1 C  31.9484 35.8332 81.6442 0
M  V30 2 O  31.8331 36.6036 82.8310 0
M  V30 3 C  30.5748 36.9312 83.2915 0
M  V30 4 C  30.5321 37.8746 84.3122 0
M  V30 5 C  29.3248 38.3095 84.8436 0
M  V30 6 C  29.3752 36.3911 82.7988 0
M  V30 7 C  28.1249 36.8100 83.3230 0
M  V30 8 C  28.1036 37.7824 84.3650 0
M  V30 9 C  26.8934 36.2984 82.8457 0
M  V30 10 C  25.6874 36.7513 83.3805 0
M  V30 11 C  25.6537 37.7112 84.3969 0
M  V30 12 C  26.8631 38.2006 84.8980 0
M  V30 13 C  24.3142 38.1603 84.9130 0
M  V30 14 C  23.1454 37.4176 85.0700 0
M  V30 15 N  23.9344 39.4332 85.3250 0
M  V30 16 N  22.6391 39.4969 85.6805 0
M  V30 17 C  22.1530 38.2921 85.5234 0
M  V30 18 C  20.7249 38.0145 85.8247 0
M  V30 19 C  19.7155 38.6570 85.0980 0
M  V30 20 C  18.3722 38.4132 85.3908 0
M  V30 21 Cl 17.1276 39.1561 84.4575 0
M  V30 22 C  20.3767 37.1298 86.8494 0
M  V30 23 C  19.0334 36.9172 87.1638 0
M  V30 24 Cl 18.6003 35.8527 88.4435 0
M  V30 25 C  18.0318 37.5566 86.4354 0
M  V30 26 C  24.7332 40.6668 85.4816 0 CFG=1
M  V30 27 C  24.0792 41.8302 84.6851 0
M  V30 28 C  25.0540 40.9736 86.9652 0
M  V30 29 C  25.5118 39.9472 87.8031 0
M  V30 30 C  25.8158 40.1936 89.1385 0
M  V30 31 C  25.6356 41.4679 89.6809 0
M  V30 32 C  25.1790 42.5004 88.8519 0
M  V30 33 C  24.8999 42.2569 87.5075 0
M  V30 34 C  25.9107 41.6988 91.1465 0
M  V30 35 O  26.8601 41.1566 91.7138 0
M  V30 36 N  25.0215 42.4779 91.7821 0
M  V30 37 C  24.9231 42.6471 93.2338 0
M  V30 38 C  24.2890 41.4613 94.0217 0
M  V30 39 C  22.8773 40.9928 93.5804 0
M  V30 40 O  22.4827 41.1931 92.4094 0 CHG=-1
M  V30 41 O  22.1863 40.4071 94.4427 0
M  V30 42 H  33.0000 35.7105 81.3869 0
M  V30 43 H  31.5155 34.8379 81.7563 0
M  V30 44 H  31.4631 36.3569 80.8218 0
M  V30 45 H  31.4567 38.2851 84.6915 0
M  V30 46 H  29.3170 39.0470 85.6338 0
M  V30 47 H  29.3778 35.6558 82.0073 0
M  V30 48 H  26.8972 35.5636 82.0519 0
M  V30 49 H  24.7629 36.3540 82.9860 0
M  V30 50 H  26.8884 38.9151 85.7023 0
M  V30 51 H  23.0182 36.3662 84.8585 0
M  V30 52 H  19.9792 39.3394 84.3035 0
M  V30 53 H  21.1473 36.6293 87.4178 0
M  V30 54 H  16.9919 37.3840 86.6745 0
M  V30 55 H  25.6841 40.5088 84.9810 0
M  V30 56 H  24.7449 42.6919 84.6217 0
M  V30 57 H  23.8453 41.5421 83.6590 0
M  V30 58 H  23.1488 42.1673 85.1451 0
M  V30 59 H  25.6207 38.9387 87.4344 0
M  V30 60 H  26.1605 39.3779 89.7581 0
M  V30 61 H  25.0385 43.4993 89.2392 0
M  V30 62 H  24.5522 43.0803 86.9039 0
M  V30 63 H  24.2120 42.7760 91.2573 0
M  V30 64 H  24.3526 43.5548 93.4341 0
M  V30 65 H  25.9170 42.8470 93.6405 0
M  V30 66 H  24.2450 41.7499 95.0732 0
M  V30 67 H  24.9645 40.6050 93.9971 0
M  V30 END ATOM
M  V30 BEGIN BOND
M  V30 1 1 1 2
M  V30 2 1 1 42
M  V30 3 1 1 43
M  V30 4 1 1 44
M  V30 5 1 2 3
M  V30 6 2 3 4
M  V30 7 1 3 6
M  V30 8 1 4 5
M  V30 9 1 4 45
M  V30 10 2 5 8
M  V30 11 1 5 46
M  V30 12 2 6 7
M  V30 13 1 6 47
M  V30 14 1 7 8
M  V30 15 1 7 9
M  V30 16 1 8 12
M  V30 17 2 9 10
M  V30 18 1 9 48
M  V30 19 1 10 11
M  V30 20 1 10 49
M  V30 21 2 11 12
M  V30 22 1 11 13
M  V30 23 1 12 50
M  V30 24 2 13 14
M  V30 25 1 13 15
M  V30 26 1 14 17
M  V30 27 1 14 51
M  V30 28 1 15 16
M  V30 29 1 15 26
M  V30 30 2 16 17
M  V30 31 1 17 18
M  V30 32 2 18 19
M  V30 33 1 18 22
M  V30 34 1 19 20
M  V30 35 1 19 52
M  V30 36 1 20 21
M  V30 37 2 20 25
M  V30 38 2 22 23
M  V30 39 1 22 53
M  V30 40 1 23 24
M  V30 41 1 23 25
M  V30 42 1 25 54
M  V30 43 1 26 27
M  V30 44 1 26 28
M  V30 45 1 26 55
M  V30 46 1 27 56
M  V30 47 1 27 57
M  V30 48 1 27 58
M  V30 49 2 28 29
M  V30 50 1 28 33
M  V30 51 1 29 30
M  V30 52 1 29 59
M  V30 53 2 30 31
M  V30 54 1 30 60
M  V30 55 1 31 32
M  V30 56 1 31 34
M  V30 57 2 32 33
M  V30 58 1 32 61
M  V30 59 1 33 62
M  V30 60 2 34 35
M  V30 61 1 34 36
M  V30 62 1 36 37
M  V30 63 1 36 63
M  V30 64 1 37 38
M  V30 65 1 37 64
M  V30 66 1 37 65
M  V30 67 1 38 39
M  V30 68 1 38 66
M  V30 69 1 38 67
M  V30 70 1 39 40
M  V30 71 2 39 41
M  V30 END BOND
M  V30 END CTAB
M  END
> <s_m_entry_id>
1010

> <s_m_entry_name>
result.1125

> <s_m_Source_Path>
D:\OneDrive - zju.edu.cn\DOC\A-Finished\LCK_VS\Planet\LCK-8617

> <s_m_Source_File>
glide-dock_SP_top1262_2_pv.maegz

> <i_m_Source_File_Index>
1010

> <PLANET_affinity>
7.758

> <i_lp_mmshare_version>
54117

> <i_f3d_flags>
0

> <s_epik_input>
W0NIM11PYyhbY0hdMSlbY0hdW2NIXWMoYzEyKVtjSF1jKFtjSF1bY0hdMiktYzNbY0hdYygtYzRbY0hdYyhDbClbY0hdYyhDbClbY0hdNClubjNbQ0BASF0oW0NIM10pYzVbY0hdW2NIXWMoW2NIXVtjSF01KUMoPU8pW05IXVtDSDJdW0NIMl1DKD1PKVtPSF0=

> <s_epik_cmdline>
J2VwaWtfcHl0aG9uJywgJy1waCcsICc3LjAnLCAnLXRuJywgJzgnLCAnLW1hJywgJzUwMCcsICctaW1hZScsICc8aW5maWxlLm1hZT4nLCAnLW9tYWUnLCAnPG91dGZpbGUubWFlPic=

> <r_epik_Ionization_Penalty>
  0.0019

> <r_epik_Ionization_Penalty_Charging>
  0.0018

> <r_epik_Ionization_Penalty_Neutral>
  0.0000

> <r_epik_State_Penalty>
  0.0013

> <r_epik_Charging_Adjusted_Penalty>
0.00309546

> <i_epik_Tot_Q>
-1

> <i_epik_Tot_abs_Q>
1

> <s_lp_Force_Field>
S-OPLS

> <r_lp_Energy>
50.4867

> <b_lp_Chiralities_Consistent>
1

> <s_lp_Variant>
ClC1=CC(C2=NN(C(C3=CC4=C(C=C3)C=C(OC)C=C4)=C2)[C@H](C5=CC=C(C=C5)C(NCCC(O)=O)...-1

> <s_i_glide_gridfile>
glide-grid_1

> <i_i_glide_lignum>
1555

> <i_i_glide_rotatable_bonds>
10

> <r_i_docking_score>
-7.541485823395

> <r_i_glide_ligand_efficiency>
-0.18393867861939

> <r_i_glide_ligand_efficiency_sa>
-0.634260522003476

> <r_i_glide_ligand_efficiency_ln>
-1.59995131434745

> <r_i_glide_gscore>
-7.542785823395

> <r_i_glide_lipo>
-4.14855858405774

> <r_i_glide_hbond>
0

> <r_i_glide_metal>
0

> <r_i_glide_rewards>
-0.494994599100668

> <r_i_glide_evdw>
-53.6184234619141

> <r_i_glide_ecoul>
-3.98326230049133

> <r_i_glide_erotb>
0.379177877932811

> <r_i_glide_esite>
0

> <r_i_glide_emodel>
-81.2347070138581

> <r_i_glide_energy>
-57.6016857624054

> <r_i_glide_einternal>
9.85610198974609

> <i_i_glide_confnum>
67

> <i_i_glide_posenum>
208

> <r_i_glide_eff_state_penalty>
0.0013

> <r_lp_tautomer_probability>
1

> <s_m_subgroup_title>
glide-dock_SP_top1262_2_pv

> <s_m_subgroupid>
glide-dock_SP_top1262_2_pv

> <b_m_subgroup_collapsed>
0

$$$$
O=C(NC1=CC=C(CN2CCN(CC)CC2)C(C(F)(F)F)=C1)C3=CC=C(C)C(OC4=C5C=C(OC)C(OC)=CC5=...
                    3D
 Schrodinger Suite 2021-3.
  0  0  0     0  0            999 V3000
M  V30 BEGIN CTAB
M  V30 COUNTS 79 83 0 0 0
M  V30 BEGIN ATOM
M  V30 1 C  33.3534 30.3591 83.5775 0
M  V30 2 C  34.3227 31.3321 82.8887 0
M  V30 3 N  33.6829 32.6405 82.7647 0 CFG=1
M  V30 4 C  34.2320 33.4253 81.6549 0
M  V30 5 C  33.3577 34.6785 81.4457 0
M  V30 6 C  33.7846 33.4106 84.0146 0
M  V30 7 C  32.9310 34.6906 83.9401 0
M  V30 8 N  33.3920 35.5463 82.7337 0 CHG=1
M  V30 9 C  32.6092 36.8882 82.6132 0
M  V30 10 C  31.0991 36.8603 82.9094 0
M  V30 11 C  30.4927 37.5912 83.9575 0
M  V30 12 C  31.3046 38.5066 84.8908 0
M  V30 13 F  31.9356 39.4392 84.1768 0
M  V30 14 F  30.5422 39.1324 85.7863 0
M  V30 15 F  32.2030 37.7801 85.5542 0
M  V30 16 C  29.1015 37.4905 84.1462 0
M  V30 17 C  30.2884 36.0805 82.0837 0
M  V30 18 C  28.9312 35.9525 82.3113 0
M  V30 19 C  28.3139 36.6635 83.3403 0
M  V30 20 N  26.9317 36.6074 83.6160 0
M  V30 21 C  26.0011 35.7267 83.1772 0
M  V30 22 O  26.2334 34.7589 82.4490 0
M  V30 23 C  24.5813 35.9922 83.6215 0
M  V30 24 C  23.5129 35.3883 82.9399 0
M  V30 25 C  22.1940 35.6398 83.3138 0
M  V30 26 C  21.9088 36.5142 84.3633 0
M  V30 27 C  20.4633 36.8044 84.7423 0
M  V30 28 C  22.9659 37.1364 85.0418 0
M  V30 29 C  24.2857 36.8523 84.6908 0
M  V30 30 O  22.7391 38.0584 86.0380 0
M  V30 31 C  22.5301 39.3976 85.7429 0
M  V30 32 N  22.5459 39.7916 84.4433 0
M  V30 33 C  22.3247 41.1046 84.2014 0
M  V30 34 N  22.0831 42.0614 85.1261 0
M  V30 35 C  22.0681 41.6633 86.4301 0
M  V30 36 C  22.3058 40.3084 86.8036 0
M  V30 37 C  21.7960 42.6135 87.4379 0
M  V30 38 C  21.7741 42.2414 88.7908 0
M  V30 39 O  21.4486 43.1104 89.8176 0
M  V30 40 C  21.0191 44.4310 89.4940 0
M  V30 41 C  22.0739 40.9162 89.1411 0
M  V30 42 C  22.3045 39.9526 88.1669 0
M  V30 43 O  22.0839 40.5074 90.4494 0
M  V30 44 C  23.2473 40.8795 91.1754 0
M  V30 45 H  33.7811 29.3594 83.6457 0
M  V30 46 H  32.4127 30.2901 83.0318 0
M  V30 47 H  33.1133 30.6822 84.5892 0
M  V30 48 H  35.2629 31.4026 83.4383 0
M  V30 49 H  34.5615 30.9304 81.9026 0
M  V30 50 H  35.2754 33.6882 81.8340 0
M  V30 51 H  34.2111 32.8281 80.7396 0
M  V30 52 H  32.3324 34.3685 81.2590 0
M  V30 53 H  33.7059 35.2936 80.6168 0
M  V30 54 H  33.4210 32.8103 84.8445 0
M  V30 55 H  34.8227 33.6516 84.2464 0
M  V30 56 H  31.8782 34.4471 83.7914 0
M  V30 57 H  33.0407 35.3073 84.8324 0
M  V30 58 H  33.1567 37.5303 83.3001 0
M  V30 59 H  32.7945 37.2626 81.6035 0
M  V30 60 H  28.6257 38.0502 84.9377 0
M  V30 61 H  30.6996 35.5564 81.2436 0
M  V30 62 H  28.3860 35.3170 81.6436 0
M  V30 63 H  26.5896 37.3291 84.2306 0
M  V30 64 H  23.6852 34.7185 82.1096 0
M  V30 65 H  21.3971 35.1552 82.7688 0
M  V30 66 H  19.7505 36.3606 84.0456 0
M  V30 67 H  20.2567 36.4380 85.7497 0
M  V30 68 H  20.2858 37.8818 84.7448 0
M  V30 69 H  25.0622 37.3477 85.2548 0
M  V30 70 H  22.3309 41.4234 83.1692 0
M  V30 71 H  21.5837 43.6269 87.1272 0
M  V30 72 H  20.7377 44.9548 90.4049 0
M  V30 73 H  21.8069 45.0062 89.0058 0
M  V30 74 H  20.1360 44.4145 88.8453 0
M  V30 75 H  22.4862 38.9259 88.4435 0
M  V30 76 H  23.1810 40.4839 92.1896 0
M  V30 77 H  24.1485 40.4699 90.7163 0
M  V30 78 H  23.3531 41.9627 91.2492 0
M  V30 79 H  34.3643 35.7723 82.8926 0
M  V30 END ATOM
M  V30 BEGIN BOND
M  V30 1 1 1 2
M  V30 2 1 1 45
M  V30 3 1 1 46
M  V30 4 1 1 47
M  V30 5 1 2 3
M  V30 6 1 2 48
M  V30 7 1 2 49
M  V30 8 1 3 4
M  V30 9 1 3 6
M  V30 10 1 4 5
M  V30 11 1 4 50
M  V30 12 1 4 51
M  V30 13 1 5 8
M  V30 14 1 5 52
M  V30 15 1 5 53
M  V30 16 1 6 7
M  V30 17 1 6 54
M  V30 18 1 6 55
M  V30 19 1 7 8
M  V30 20 1 7 56
M  V30 21 1 7 57
M  V30 22 1 8 9
M  V30 23 1 8 79
M  V30 24 1 9 10
M  V30 25 1 9 58
M  V30 26 1 9 59
M  V30 27 2 10 11
M  V30 28 1 10 17
M  V30 29 1 11 12
M  V30 30 1 11 16
M  V30 31 1 12 13
M  V30 32 1 12 14
M  V30 33 1 12 15
M  V30 34 2 16 19
M  V30 35 1 16 60
M  V30 36 2 17 18
M  V30 37 1 17 61
M  V30 38 1 18 19
M  V30 39 1 18 62
M  V30 40 1 19 20
M  V30 41 1 20 21
M  V30 42 1 20 63
M  V30 43 2 21 22
M  V30 44 1 21 23
M  V30 45 2 23 24
M  V30 46 1 23 29
M  V30 47 1 24 25
M  V30 48 1 24 64
M  V30 49 2 25 26
M  V30 50 1 25 65
M  V30 51 1 26 27
M  V30 52 1 26 28
M  V30 53 1 27 66
M  V30 54 1 27 67
M  V30 55 1 27 68
M  V30 56 2 28 29
M  V30 57 1 28 30
M  V30 58 1 29 69
M  V30 59 1 30 31
M  V30 60 2 31 32
M  V30 61 1 31 36
M  V30 62 1 32 33
M  V30 63 2 33 34
M  V30 64 1 33 70
M  V30 65 1 34 35
M  V30 66 2 35 36
M  V30 67 1 35 37
M  V30 68 1 36 42
M  V30 69 2 37 38
M  V30 70 1 37 71
M  V30 71 1 38 39
M  V30 72 1 38 41
M  V30 73 1 39 40
M  V30 74 1 40 72
M  V30 75 1 40 73
M  V30 76 1 40 74
M  V30 77 2 41 42
M  V30 78 1 41 43
M  V30 79 1 42 75
M  V30 80 1 43 44
M  V30 81 1 44 76
M  V30 82 1 44 77
M  V30 83 1 44 78
M  V30 END BOND
M  V30 END CTAB
M  END
> <s_m_entry_id>
1019

> <s_m_entry_name>
result.1702

> <s_m_Source_Path>
D:\OneDrive - zju.edu.cn\DOC\A-Finished\LCK_VS\Planet\LCK-8617

> <s_m_Source_File>
glide-dock_SP_top1262_2_pv.maegz

> <i_m_Source_File_Index>
1019

> <PLANET_affinity>
9.013

> <i_lp_mmshare_version>
54117

> <i_f3d_flags>
0

> <s_epik_input>
W0NIM11bQ0gyXU4xW0NIMl1bQ0gyXU4oW0NIMl1bQ0gyXTEpW0NIMl1jMmMoQyhGKShGKUYpW2NIXWMoW2NIXVtjSF0yKVtOSF1DKD1PKWMzW2NIXVtjSF1jKFtDSDNdKWMoW2NIXTMpT2MobltjSF1uNCljKGM0NSlbY0hdYyhPW0NIM10pYyhbY0hdNSlPW0NIM10=

> <s_epik_cmdline>
J2VwaWtfcHl0aG9uJywgJy1waCcsICc3LjAnLCAnLXRuJywgJzgnLCAnLW1hJywgJzUwMCcsICctaW1hZScsICc8aW5maWxlLm1hZT4nLCAnLW9tYWUnLCAnPG91dGZpbGUubWFlPic=

> <r_epik_Ionization_Penalty>
  0.0158

> <r_epik_Ionization_Penalty_Charging>
  0.0136

> <r_epik_Ionization_Penalty_Neutral>
  0.0021

> <r_epik_State_Penalty>
  0.1130

> <r_epik_Charging_Adjusted_Penalty>
0.126653

> <i_epik_Tot_Q>
1

> <i_epik_Tot_abs_Q>
1

> <s_lp_Force_Field>
S-OPLS

> <r_lp_Energy>
87.3001

> <b_lp_Chiralities_Consistent>
1

> <s_lp_Variant>
O=C(NC1=CC=C(CN2CCN(CC)CC2)C(C(F)(F)F)=C1)C3=CC=C(C)C(OC4=C5C=C(OC)C(OC)=CC5=...-1

> <s_i_glide_gridfile>
glide-grid_1

> <i_i_glide_lignum>
506

> <i_i_glide_rotatable_bonds>
11

> <r_i_docking_score>
-7.53498372252136

> <r_i_glide_ligand_efficiency>
-0.171249630057304

> <r_i_glide_ligand_efficiency_sa>
-0.604570845635403

> <r_i_glide_ligand_efficiency_ln>
-1.57497597275428

> <r_i_glide_gscore>
-7.64798372252136

> <r_i_glide_lipo>
-2.57576180542504

> <r_i_glide_hbond>
-0.32

> <r_i_glide_metal>
0

> <r_i_glide_rewards>
-1.12785728549801

> <r_i_glide_evdw>
-51.5125312805176

> <r_i_glide_ecoul>
-8.76092433929443

> <r_i_glide_erotb>
0.270266381390634

> <r_i_glide_esite>
-0.0048657980689066

> <r_i_glide_emodel>
-79.4543425125557

> <r_i_glide_energy>
-60.273455619812

> <r_i_glide_einternal>
26.6808071136475

> <i_i_glide_confnum>
62

> <i_i_glide_posenum>
288

> <r_i_glide_eff_state_penalty>
0.113

> <r_lp_tautomer_probability>
1

> <s_m_subgroup_title>
glide-dock_SP_top1262_2_pv

> <s_m_subgroupid>
glide-dock_SP_top1262_2_pv

> <b_m_subgroup_collapsed>
0

$$$$
O=C1N(C2=C(C=C1)C=NC3=CC=C(C=C32)C4=CC=C(N=C4)N)C5=CC=CC(C(F)(F)F)=C5
                    3D
 Schrodinger Suite 2021-3.
  0  0  0     0  0            999 V3000
M  V30 BEGIN CTAB
M  V30 COUNTS 47 51 0 0 0
M  V30 BEGIN ATOM
M  V30 1 F  23.5042 42.3160 83.7456 0
M  V30 2 C  22.7059 41.7726 84.6642 0
M  V30 3 F  22.0830 42.7584 85.3055 0
M  V30 4 F  21.7963 41.0213 84.0448 0
M  V30 5 C  23.4930 40.8950 85.6378 0
M  V30 6 C  24.6055 40.1726 85.1925 0
M  V30 7 C  23.1192 40.8068 86.9853 0
M  V30 8 C  23.8457 40.0113 87.8723 0
M  V30 9 C  24.9483 39.2875 87.4218 0
M  V30 10 C  25.3281 39.3581 86.0738 0
M  V30 11 N  26.4315 38.6206 85.5919 0
M  V30 12 C  27.6646 39.1555 85.9219 0
M  V30 13 O  27.8783 40.0216 86.7775 0
M  V30 14 C  28.7735 38.6439 85.1414 0
M  V30 15 C  28.6378 37.7372 84.1586 0
M  V30 16 C  27.3253 37.1598 83.8558 0
M  V30 17 C  26.2127 37.5560 84.6252 0
M  V30 18 C  27.1928 36.2210 82.8422 0
M  V30 19 N  26.0195 35.6521 82.5056 0
M  V30 20 C  24.9227 35.9555 83.2450 0
M  V30 21 C  24.9624 36.8550 84.3641 0
M  V30 22 C  23.7557 36.9739 85.1207 0
M  V30 23 C  22.5665 36.3558 84.7365 0
M  V30 24 C  22.5502 35.5580 83.5953 0
M  V30 25 C  23.7089 35.3385 82.8635 0
M  V30 26 C  21.3454 36.5497 85.5561 0
M  V30 27 C  20.2872 37.3504 85.1084 0
M  V30 28 C  19.1763 37.5577 85.9296 0
M  V30 29 C  19.1474 36.9446 87.1837 0
M  V30 30 N  18.0609 37.1310 88.0301 0
M  V30 31 N  20.1467 36.1478 87.6302 0
M  V30 32 C  21.2248 35.9676 86.8248 0
M  V30 33 H  24.9074 40.2354 84.1566 0
M  V30 34 H  22.2666 41.3619 87.3519 0
M  V30 35 H  23.5539 39.9593 88.9100 0
M  V30 36 H  25.5068 38.6714 88.1141 0
M  V30 37 H  29.7534 39.0453 85.3565 0
M  V30 38 H  29.5151 37.4147 83.6134 0
M  V30 39 H  28.0415 35.9177 82.2459 0
M  V30 40 H  23.7214 37.5507 86.0240 0
M  V30 41 H  21.6428 35.0719 83.2721 0
M  V30 42 H  23.6812 34.6890 82.0003 0
M  V30 43 H  20.3370 37.8290 84.1411 0
M  V30 44 H  18.3605 38.1849 85.6018 0
M  V30 45 H  17.3119 37.7567 87.7669 0
M  V30 46 H  18.0395 36.6319 88.9055 0
M  V30 47 H  22.0094 35.3364 87.2199 0
M  V30 END ATOM
M  V30 BEGIN BOND
M  V30 1 1 1 2
M  V30 2 1 2 3
M  V30 3 1 2 4
M  V30 4 1 2 5
M  V30 5 2 5 6
M  V30 6 1 5 7
M  V30 7 1 6 10
M  V30 8 1 6 33
M  V30 9 2 7 8
M  V30 10 1 7 34
M  V30 11 1 8 9
M  V30 12 1 8 35
M  V30 13 2 9 10
M  V30 14 1 9 36
M  V30 15 1 10 11
M  V30 16 1 11 12
M  V30 17 1 11 17
M  V30 18 2 12 13
M  V30 19 1 12 14
M  V30 20 2 14 15
M  V30 21 1 14 37
M  V30 22 1 15 16
M  V30 23 1 15 38
M  V30 24 2 16 17
M  V30 25 1 16 18
M  V30 26 1 17 21
M  V30 27 2 18 19
M  V30 28 1 18 39
M  V30 29 1 19 20
M  V30 30 2 20 21
M  V30 31 1 20 25
M  V30 32 1 21 22
M  V30 33 2 22 23
M  V30 34 1 22 40
M  V30 35 1 23 24
M  V30 36 1 23 26
M  V30 37 2 24 25
M  V30 38 1 24 41
M  V30 39 1 25 42
M  V30 40 2 26 27
M  V30 41 1 26 32
M  V30 42 1 27 28
M  V30 43 1 27 43
M  V30 44 2 28 29
M  V30 45 1 28 44
M  V30 46 1 29 30
M  V30 47 1 29 31
M  V30 48 1 30 45
M  V30 49 1 30 46
M  V30 50 2 31 32
M  V30 51 1 32 47
M  V30 END BOND
M  V30 END CTAB
M  END
> <s_m_entry_id>
1021

> <s_m_entry_name>
result.1779

> <s_m_Source_Path>
D:\OneDrive - zju.edu.cn\DOC\A-Finished\LCK_VS\Planet\LCK-8617

> <s_m_Source_File>
glide-dock_SP_top1262_2_pv.maegz

> <i_m_Source_File_Index>
1021

> <PLANET_affinity>
7.059

> <i_lp_mmshare_version>
54117

> <i_f3d_flags>
0

> <s_epik_input>
RkMoRikoRiljMVtjSF1jKFtjSF1bY0hdW2NIXTEpLW4oYyg9TylbY0hdW2NIXTIpYyhjMjMpYzRjKG5bY0hdMylbY0hdW2NIXWMoW2NIXTQpLWM1W2NIXVtjSF1jKFtOSDJdKW5bY0hdNQ==

> <s_epik_cmdline>
J2VwaWtfcHl0aG9uJywgJy1waCcsICc3LjAnLCAnLXRuJywgJzgnLCAnLW1hJywgJzUwMCcsICctaW1hZScsICc8aW5maWxlLm1hZT4nLCAnLW9tYWUnLCAnPG91dGZpbGUubWFlPic=

> <r_epik_Ionization_Penalty>
  0.0873

> <r_epik_Ionization_Penalty_Charging>
  0.0000

> <r_epik_Ionization_Penalty_Neutral>
  0.0873

> <r_epik_State_Penalty>
  0.0777

> <r_epik_Charging_Adjusted_Penalty>
0.0776673

> <i_epik_Tot_Q>
0

> <i_epik_Tot_abs_Q>
0

> <s_lp_Force_Field>
S-OPLS

> <r_lp_Energy>
69.5068

> <b_lp_Chiralities_Consistent>
1

> <s_lp_Variant>
O=C1N(C2=C(C=C1)C=NC3=CC=C(C=C32)C4=CC=C(N=C4)N)C5=CC=CC(C(F)(F)F)=C5-1

> <s_i_glide_gridfile>
glide-grid_1

> <i_i_glide_lignum>
2597

> <i_i_glide_rotatable_bonds>
3

> <r_i_docking_score>
-7.53422862858852

> <r_i_glide_ligand_efficiency>
-0.235444644643391

> <r_i_glide_ligand_efficiency_sa>
-0.747490152310862

> <r_i_glide_ligand_efficiency_ln>
-1.68711916525674

> <r_i_glide_gscore>
-7.61192862858852

> <r_i_glide_lipo>
-3.61288007716757

> <r_i_glide_hbond>
0

> <r_i_glide_metal>
0

> <r_i_glide_rewards>
-1.75010408968563

> <r_i_glide_evdw>
-47.2516403198242

> <r_i_glide_ecoul>
0.00597469741478562

> <r_i_glide_erotb>
0.212851760153633

> <r_i_glide_esite>
-0.100110410509963

> <r_i_glide_emodel>
-68.3981106279371

> <r_i_glide_energy>
-47.2456656224094

> <r_i_glide_einternal>
3.25876092910767

> <i_i_glide_confnum>
8

> <i_i_glide_posenum>
345

> <r_i_glide_eff_state_penalty>
0.0777

> <r_lp_tautomer_probability>
1

> <s_m_subgroup_title>
glide-dock_SP_top1262_2_pv

> <s_m_subgroupid>
glide-dock_SP_top1262_2_pv

> <b_m_subgroup_collapsed>
0

$$$$
COC1=CC(C2=CC=C(N3N=C(C4=CC=CC=C4)N=[N+]3C5=CC=C([N+]([O-])=O)C=C5)C(OC)=C2)=...
                    3D
 Schrodinger Suite 2021-3.
  0  0  0     0  0            999 V3000
M  V30 BEGIN CTAB
M  V30 COUNTS 86 93 0 0 0
M  V30 BEGIN ATOM
M  V30 1 O  25.2466 45.8540 86.1123 0 CHG=-1
M  V30 2 N  25.7278 44.9622 85.4181 0 CHG=1
M  V30 3 O  26.6309 45.1564 84.6057 0
M  V30 4 C  25.2157 43.5811 85.5810 0
M  V30 5 C  25.5377 42.5963 84.6406 0
M  V30 6 C  25.0774 41.2927 84.7918 0
M  V30 7 C  24.4076 43.2371 86.6733 0
M  V30 8 C  23.9520 41.9302 86.8326 0
M  V30 9 C  24.2905 40.9491 85.8929 0
M  V30 10 N  23.7960 39.6296 86.0341 0 CHG=1
M  V30 11 N  22.5548 39.3860 86.5024 0
M  V30 12 C  22.4309 38.0758 86.4833 0
M  V30 13 C  21.1949 37.3678 86.9422 0
M  V30 14 C  20.0069 38.0806 87.1658 0
M  V30 15 C  18.8749 37.4281 87.6435 0
M  V30 16 C  18.9336 36.0624 87.9017 0
M  V30 17 C  20.0903 35.3335 87.6436 0
M  V30 18 C  21.2210 35.9850 87.1696 0
M  V30 19 N  23.5005 37.4483 86.0435 0
M  V30 20 N  24.3874 38.4236 85.7591 0
M  V30 21 C  25.6697 38.1433 85.2275 0
M  V30 22 C  26.7895 38.7613 85.7922 0
M  V30 23 C  28.0534 38.5537 85.2467 0
M  V30 24 C  28.2353 37.7166 84.1407 0
M  V30 25 C  27.1135 37.0706 83.6093 0
M  V30 26 C  25.8280 37.2608 84.1424 0
M  V30 27 O  24.7026 36.6309 83.6436 0
M  V30 28 C  24.8262 35.6614 82.6060 0
M  V30 29 C  29.5832 37.5426 83.5260 0
M  V30 30 C  29.9921 36.3132 82.9881 0
M  V30 31 C  31.2402 36.1717 82.3838 0
M  V30 32 C  32.0980 37.2711 82.3096 0
M  V30 33 C  31.7216 38.5147 82.8330 0
M  V30 34 C  30.4645 38.6294 83.4426 0
M  V30 35 O  32.6187 39.5620 82.7190 0
M  V30 36 C  32.1895 40.8845 83.0222 0
M  V30 37 N  33.3736 37.1251 81.7413 0
M  V30 38 N  33.6076 37.1764 80.4135 0
M  V30 39 C  34.9250 37.2161 80.3171 0
M  V30 40 C  35.6586 37.3468 79.0123 0
M  V30 41 C  37.0334 37.0747 78.9433 0
M  V30 42 C  37.7245 37.2091 77.7425 0
M  V30 43 C  37.0446 37.6168 76.5985 0
M  V30 44 C  35.6807 37.8908 76.6484 0
M  V30 45 C  34.9886 37.7550 77.8505 0
M  V30 46 N  35.5442 37.1845 81.4843 0
M  V30 47 N  34.5549 37.1226 82.3946 0 CHG=1
M  V30 48 C  34.7649 37.2318 83.7820 0
M  V30 49 C  34.3251 36.2195 84.6370 0
M  V30 50 C  34.4904 36.3578 86.0131 0
M  V30 51 C  35.0879 37.5101 86.5473 0
M  V30 52 N  35.2572 37.6607 88.0149 0 CHG=1
M  V30 53 O  34.8696 36.7565 88.7484 0 CHG=-1
M  V30 54 O  35.7786 38.6883 88.4425 0
M  V30 55 C  35.5267 38.5171 85.6737 0
M  V30 56 C  35.3703 38.3792 84.2967 0
M  V30 57 H  26.1349 42.8499 83.7775 0
M  V30 58 H  25.3337 40.5595 84.0435 0
M  V30 59 H  24.1274 43.9821 87.4034 0
M  V30 60 H  23.3283 41.6939 87.6834 0
M  V30 61 H  19.9555 39.1443 86.9809 0
M  V30 62 H  17.9642 37.9815 87.8299 0
M  V30 63 H  18.0753 35.5564 88.3034 0
M  V30 64 H  20.1165 34.2692 87.8359 0
M  V30 65 H  22.1174 35.4071 86.9973 0
M  V30 66 H  26.6875 39.4226 86.6419 0
M  V30 67 H  28.8972 39.0522 85.7013 0
M  V30 68 H  27.2518 36.4276 82.7527 0
M  V30 69 H  23.8419 35.2582 82.3684 0
M  V30 70 H  25.2263 36.1054 81.6938 0
M  V30 71 H  25.4616 34.8295 82.9116 0
M  V30 72 H  29.3437 35.4496 83.0343 0
M  V30 73 H  31.5291 35.2118 81.9761 0
M  V30 74 H  30.1551 39.5812 83.8441 0
M  V30 75 H  32.9800 41.5893 82.7648 0
M  V30 76 H  31.3063 41.1570 82.4423 0
M  V30 77 H  31.9769 41.0080 84.0860 0
M  V30 78 H  37.5764 36.7513 79.8198 0
M  V30 79 H  38.7826 36.9934 77.6979 0
M  V30 80 H  37.5807 37.7184 75.6667 0
M  V30 81 H  35.1483 38.1986 75.7595 0
M  V30 82 H  33.9289 37.9720 77.8712 0
M  V30 83 H  33.8592 35.3231 84.2480 0
M  V30 84 H  34.1620 35.5551 86.6591 0
M  V30 85 H  35.9932 39.4150 86.0578 0
M  V30 86 H  35.7018 39.1701 83.6396 0
M  V30 END ATOM
M  V30 BEGIN BOND
M  V30 1 1 1 2
M  V30 2 2 2 3
M  V30 3 1 2 4
M  V30 4 2 4 5
M  V30 5 1 4 7
M  V30 6 1 5 6
M  V30 7 1 5 57
M  V30 8 2 6 9
M  V30 9 1 6 58
M  V30 10 2 7 8
M  V30 11 1 7 59
M  V30 12 1 8 9
M  V30 13 1 8 60
M  V30 14 1 9 10
M  V30 15 2 10 11
M  V30 16 1 10 20
M  V30 17 1 11 12
M  V30 18 1 12 13
M  V30 19 2 12 19
M  V30 20 2 13 14
M  V30 21 1 13 18
M  V30 22 1 14 15
M  V30 23 1 14 61
M  V30 24 2 15 16
M  V30 25 1 15 62
M  V30 26 1 16 17
M  V30 27 1 16 63
M  V30 28 2 17 18
M  V30 29 1 17 64
M  V30 30 1 18 65
M  V30 31 1 19 20
M  V30 32 1 20 21
M  V30 33 2 21 22
M  V30 34 1 21 26
M  V30 35 1 22 23
M  V30 36 1 22 66
M  V30 37 2 23 24
M  V30 38 1 23 67
M  V30 39 1 24 25
M  V30 40 1 24 29
M  V30 41 2 25 26
M  V30 42 1 25 68
M  V30 43 1 26 27
M  V30 44 1 27 28
M  V30 45 1 28 69
M  V30 46 1 28 70
M  V30 47 1 28 71
M  V30 48 2 29 30
M  V30 49 1 29 34
M  V30 50 1 30 31
M  V30 51 1 30 72
M  V30 52 2 31 32
M  V30 53 1 31 73
M  V30 54 1 32 33
M  V30 55 1 32 37
M  V30 56 2 33 34
M  V30 57 1 33 35
M  V30 58 1 34 74
M  V30 59 1 35 36
M  V30 60 1 36 75
M  V30 61 1 36 76
M  V30 62 1 36 77
M  V30 63 1 37 38
M  V30 64 1 37 47
M  V30 65 2 38 39
M  V30 66 1 39 40
M  V30 67 1 39 46
M  V30 68 2 40 41
M  V30 69 1 40 45
M  V30 70 1 41 42
M  V30 71 1 41 78
M  V30 72 2 42 43
M  V30 73 1 42 79
M  V30 74 1 43 44
M  V30 75 1 43 80
M  V30 76 2 44 45
M  V30 77 1 44 81
M  V30 78 1 45 82
M  V30 79 2 46 47
M  V30 80 1 47 48
M  V30 81 2 48 49
M  V30 82 1 48 56
M  V30 83 1 49 50
M  V30 84 1 49 83
M  V30 85 2 50 51
M  V30 86 1 50 84
M  V30 87 1 51 52
M  V30 88 1 51 55
M  V30 89 1 52 53
M  V30 90 2 52 54
M  V30 91 2 55 56
M  V30 92 1 55 85
M  V30 93 1 56 86
M  V30 END BOND
M  V30 END CTAB
M  END
> <s_m_entry_id>
1023

> <s_m_entry_name>
result.7091

> <s_m_Source_Path>
D:\OneDrive - zju.edu.cn\DOC\A-Finished\LCK_VS\Planet\LCK-8617

> <s_m_Source_File>
glide-dock_SP_top1262_2_pv.maegz

> <i_m_Source_File_Index>
1023

> <PLANET_affinity>
7.526

> <i_lp_mmshare_version>
54117

> <i_f3d_flags>
0

> <s_epik_input>
W08tXVtOK10oPU8pYzFbY0hdW2NIXWMoW2NIXVtjSF0xKS1bbitdMm5jKC1jM1tjSF1bY0hdW2NIXVtjSF1bY0hdMylubjItYzRbY0hdW2NIXWMoW2NIXWM0T1tDSDNdKS1jNVtjSF1bY0hdYyhjKFtjSF01KU9bQ0gzXSktbjZuYygtYzdbY0hdW2NIXVtjSF1bY0hdW2NIXTcpbltuK102LWM4W2NIXVtjSF1jKFtOK10oW08tXSk9TylbY0hdW2NIXTg=

> <s_epik_cmdline>
J2VwaWtfcHl0aG9uJywgJy1waCcsICc3LjAnLCAnLXRuJywgJzgnLCAnLW1hJywgJzUwMCcsICctaW1hZScsICc8aW5maWxlLm1hZT4nLCAnLW9tYWUnLCAnPG91dGZpbGUubWFlPic=

> <r_epik_Ionization_Penalty>
  0.0000

> <r_epik_Ionization_Penalty_Charging>
  0.0000

> <r_epik_Ionization_Penalty_Neutral>
  0.0000

> <r_epik_State_Penalty>
  0.0000

> <r_epik_Charging_Adjusted_Penalty>
0

> <i_epik_Tot_Q>
2

> <i_epik_Tot_abs_Q>
6

> <s_lp_Force_Field>
S-OPLS

> <r_lp_Energy>
101.146

> <b_lp_Chiralities_Consistent>
1

> <s_lp_Variant>
COC1=CC(C2=CC=C(N3N=C(C4=CC=CC=C4)N=[N+]3C5=CC=C([N+]([O-])=O)C=C5)C(OC)=C2)=...-1

> <s_i_glide_gridfile>
glide-grid_1

> <i_i_glide_lignum>
1908

> <i_i_glide_rotatable_bonds>
11

> <r_i_docking_score>
-7.53303522861192

> <r_i_glide_ligand_efficiency>
-0.134518486225213

> <r_i_glide_ligand_efficiency_sa>
-0.514649213228547

> <r_i_glide_ligand_efficiency_ln>
-1.49900657549998

> <r_i_glide_gscore>
-7.53303522861192

> <r_i_glide_lipo>
-3.46929797509916

> <r_i_glide_hbond>
0

> <r_i_glide_metal>
0

> <r_i_glide_rewards>
-0.35686975562143

> <r_i_glide_evdw>
-57.1182174682617

> <r_i_glide_ecoul>
-5.84661626815796

> <r_i_glide_erotb>
0.0800320295138045

> <r_i_glide_esite>
-0.0539962137683492

> <r_i_glide_emodel>
-96.7359733329975

> <r_i_glide_energy>
-62.9648337364197

> <r_i_glide_einternal>
3.32236576080322

> <i_i_glide_confnum>
138

> <i_i_glide_posenum>
292

> <r_i_glide_eff_state_penalty>
0

> <r_lp_tautomer_probability>
1

> <s_m_subgroup_title>
glide-dock_SP_top1262_2_pv

> <s_m_subgroupid>
glide-dock_SP_top1262_2_pv

> <b_m_subgroup_collapsed>
0

$$$$
CC1=NN(C(C)(C)C#N)C=C1NC2=NC=C(C(F)(F)F)C(NC)=N2
                    3D
 Schrodinger Suite 2021-3.
  0  0  0     0  0            999 V3000
M  V30 BEGIN CTAB
M  V30 COUNTS 40 41 0 0 0
M  V30 BEGIN ATOM
M  V30 1 C  28.5387 38.6696 84.0945 0
M  V30 2 C  29.2783 37.4682 83.5463 0
M  V30 3 N  30.5864 37.4510 83.6844 0
M  V30 4 N  31.0266 36.3862 83.0014 0
M  V30 5 C  32.4823 36.1179 82.9234 0
M  V30 6 C  32.9726 35.6077 84.2960 0
M  V30 7 C  32.8035 35.0672 81.8320 0
M  V30 8 C  33.1938 37.3660 82.5711 0
M  V30 9 N  33.7524 38.3423 82.2942 0
M  V30 10 C  29.9737 35.6723 82.4885 0
M  V30 11 C  28.8094 36.3351 82.8382 0
M  V30 12 N  27.5490 35.9399 82.4468 0
M  V30 13 C  26.3083 36.0404 83.0891 0
M  V30 14 N  25.2854 35.4302 82.4435 0
M  V30 15 C  24.0516 35.5566 82.9898 0
M  V30 16 C  23.8142 36.2899 84.1613 0
M  V30 17 C  22.3913 36.4985 84.6829 0
M  V30 18 F  21.4785 35.9585 83.8751 0
M  V30 19 F  22.2556 35.9567 85.8927 0
M  V30 20 F  22.1305 37.8020 84.7716 0
M  V30 21 C  24.9435 36.8423 84.7913 0
M  V30 22 N  26.1894 36.7109 84.2626 0
M  V30 23 N  24.7957 37.5559 85.9936 0
M  V30 24 C  25.9117 38.2330 86.6442 0
M  V30 25 H  27.5763 38.8231 83.6053 0
M  V30 26 H  28.3584 38.5713 85.1649 0
M  V30 27 H  29.0988 39.5937 83.9508 0
M  V30 28 H  34.0476 35.4155 84.2910 0
M  V30 29 H  32.7881 36.3333 85.0884 0
M  V30 30 H  32.4829 34.6744 84.5774 0
M  V30 31 H  33.8766 34.8785 81.7698 0
M  V30 32 H  32.3287 34.1060 82.0285 0
M  V30 33 H  32.4834 35.4084 80.8439 0
M  V30 34 H  30.1289 34.7680 81.9166 0
M  V30 35 H  27.4647 35.4047 81.5875 0
M  V30 36 H  23.2442 35.0912 82.4421 0
M  V30 37 H  23.8580 37.7452 86.3207 0
M  V30 38 H  25.6107 38.5971 87.6262 0
M  V30 39 H  26.7571 37.5588 86.7809 0
M  V30 40 H  26.2397 39.0862 86.0490 0
M  V30 END ATOM
M  V30 BEGIN BOND
M  V30 1 1 1 2
M  V30 2 1 1 25
M  V30 3 1 1 26
M  V30 4 1 1 27
M  V30 5 2 2 3
M  V30 6 1 2 11
M  V30 7 1 3 4
M  V30 8 1 4 5
M  V30 9 1 4 10
M  V30 10 1 5 6
M  V30 11 1 5 7
M  V30 12 1 5 8
M  V30 13 1 6 28
M  V30 14 1 6 29
M  V30 15 1 6 30
M  V30 16 1 7 31
M  V30 17 1 7 32
M  V30 18 1 7 33
M  V30 19 3 8 9
M  V30 20 2 10 11
M  V30 21 1 10 34
M  V30 22 1 11 12
M  V30 23 1 12 13
M  V30 24 1 12 35
M  V30 25 2 13 14
M  V30 26 1 13 22
M  V30 27 1 14 15
M  V30 28 2 15 16
M  V30 29 1 15 36
M  V30 30 1 16 17
M  V30 31 1 16 21
M  V30 32 1 17 18
M  V30 33 1 17 19
M  V30 34 1 17 20
M  V30 35 2 21 22
M  V30 36 1 21 23
M  V30 37 1 23 24
M  V30 38 1 23 37
M  V30 39 1 24 38
M  V30 40 1 24 39
M  V30 41 1 24 40
M  V30 END BOND
M  V30 END CTAB
M  END
> <s_m_entry_id>
1024

> <s_m_entry_name>
result.1722

> <s_m_Source_Path>
D:\OneDrive - zju.edu.cn\DOC\A-Finished\LCK_VS\Planet\LCK-8617

> <s_m_Source_File>
glide-dock_SP_top1262_2_pv.maegz

> <i_m_Source_File_Index>
1024

> <PLANET_affinity>
7.524

> <i_lp_mmshare_version>
54117

> <i_f3d_flags>
0

> <s_epik_input>
W0NIM11jMW5uKEMoW0NIM10pKFtDSDNdKUMjTilbY0hdYzFbTkhdYzJuW2NIXWMoQyhGKShGKUYpYyhuMilbTkhdW0NIM10=

> <s_epik_cmdline>
J2VwaWtfcHl0aG9uJywgJy1waCcsICc3LjAnLCAnLXRuJywgJzgnLCAnLW1hJywgJzUwMCcsICctaW1hZScsICc8aW5maWxlLm1hZT4nLCAnLW9tYWUnLCAnPG91dGZpbGUubWFlPic=

> <r_epik_Ionization_Penalty>
  0.0031

> <r_epik_Ionization_Penalty_Charging>
  0.0000

> <r_epik_Ionization_Penalty_Neutral>
  0.0031

> <r_epik_State_Penalty>
  0.0000

> <r_epik_Charging_Adjusted_Penalty>
0

> <i_epik_Tot_Q>
0

> <i_epik_Tot_abs_Q>
0

> <s_lp_Force_Field>
S-OPLS

> <r_lp_Energy>
13.5166

> <b_lp_Chiralities_Consistent>
1

> <s_lp_Variant>
CC1=NN(C(C)(C)C#N)C=C1NC2=NC=C(C(F)(F)F)C(NC)=N2-1

> <s_i_glide_gridfile>
glide-grid_1

> <i_i_glide_lignum>
1911

> <i_i_glide_rotatable_bonds>
5

> <r_i_docking_score>
-7.53270011777556

> <r_i_glide_ligand_efficiency>
-0.313862504907315

> <r_i_glide_ligand_efficiency_sa>
-0.905336124717295

> <r_i_glide_ligand_efficiency_ln>
-1.80292079126904

> <r_i_glide_gscore>
-7.53270011777556

> <r_i_glide_lipo>
-1.82223526998869

> <r_i_glide_hbond>
-0.480696753856114

> <r_i_glide_metal>
0

> <r_i_glide_rewards>
-2.95637189539655

> <r_i_glide_evdw>
-31.6144523620605

> <r_i_glide_ecoul>
-6.73957824707031

> <r_i_glide_erotb>
0.345141617425675

> <r_i_glide_esite>
-0.0268784607963035

> <r_i_glide_emodel>
-54.0859161609447

> <r_i_glide_energy>
-38.3540306091309

> <r_i_glide_einternal>
3.77714848518372

> <i_i_glide_confnum>
5

> <i_i_glide_posenum>
355

> <r_i_glide_eff_state_penalty>
0

> <r_lp_tautomer_probability>
1

> <s_m_subgroup_title>
glide-dock_SP_top1262_2_pv

> <s_m_subgroupid>
glide-dock_SP_top1262_2_pv

> <b_m_subgroup_collapsed>
0

$$$$
C=CC(N1CCC(OC2=CC3=C(NC4=CC=C(Cl)C(Cl)=C4F)N=CN=C3C=C2OC)CC1)=O
                    3D
 Schrodinger Suite 2021-3.
  0  0  0     0  0            999 V3000
M  V30 BEGIN CTAB
M  V30 COUNTS 54 57 0 0 0
M  V30 BEGIN ATOM
M  V30 1 C  21.7733 42.2539 87.3383 0
M  V30 2 C  23.0248 41.7943 87.1434 0
M  V30 3 C  23.7407 41.0257 88.1451 0
M  V30 4 O  23.1244 40.3566 88.9806 0
M  V30 5 N  25.1054 41.0777 88.1193 0
M  V30 6 C  25.9063 41.8628 87.1617 0
M  V30 7 C  26.4277 40.8681 86.1096 0
M  V30 8 C  27.2199 39.7100 86.7719 0
M  V30 9 C  26.5736 39.1212 88.0646 0
M  V30 10 C  25.9339 40.2039 88.9730 0
M  V30 11 O  27.7093 38.7497 85.8267 0
M  V30 12 C  26.8820 37.9453 85.0566 0
M  V30 13 C  25.4955 37.8578 85.2470 0
M  V30 14 C  27.4941 37.1750 84.0560 0
M  V30 15 O  28.8687 37.2821 83.9334 0
M  V30 16 C  29.5628 36.4743 82.9855 0
M  V30 17 C  26.7188 36.3413 83.2351 0
M  V30 18 C  25.3253 36.2351 83.4261 0
M  V30 19 C  24.7017 36.9859 84.4635 0
M  V30 20 N  24.6107 35.4169 82.6064 0
M  V30 21 C  23.2816 35.3414 82.8435 0
M  V30 22 N  22.5851 35.9615 83.8202 0
M  V30 23 C  23.2956 36.7886 84.6279 0
M  V30 24 N  22.5982 37.4405 85.6603 0
M  V30 25 C  21.2362 37.3816 85.9852 0
M  V30 26 C  20.8577 36.7419 87.1673 0
M  V30 27 C  19.5150 36.6880 87.5389 0
M  V30 28 C  18.5401 37.2943 86.7455 0
M  V30 29 Cl 16.8834 37.1795 87.2397 0
M  V30 30 C  18.9125 37.9549 85.5651 0
M  V30 31 Cl 17.7230 38.7169 84.5597 0
M  V30 32 C  20.2595 37.9982 85.1864 0
M  V30 33 F  20.6153 38.6351 84.0448 0
M  V30 34 H  21.2270 42.0790 88.2571 0
M  V30 35 H  21.2715 42.8232 86.5665 0
M  V30 36 H  23.5222 41.9937 86.2055 0
M  V30 37 H  25.4033 42.7502 86.7787 0
M  V30 38 H  26.7395 42.2889 87.7199 0
M  V30 39 H  25.5828 40.5218 85.5181 0
M  V30 40 H  27.0889 41.4253 85.4461 0
M  V30 41 H  28.1559 40.1582 87.1084 0
M  V30 42 H  27.3468 38.6328 88.6587 0
M  V30 43 H  25.8149 38.3676 87.8599 0
M  V30 44 H  26.7118 40.8300 89.4034 0
M  V30 45 H  25.3920 39.8125 89.8353 0
M  V30 46 H  24.9919 38.4513 85.9889 0
M  V30 47 H  30.6347 36.6490 83.0811 0
M  V30 48 H  29.3879 35.4116 83.1561 0
M  V30 49 H  29.2797 36.7261 81.9629 0
M  V30 50 H  27.1630 35.7551 82.4435 0
M  V30 51 H  22.7078 34.7569 82.1516 0
M  V30 52 H  23.1663 37.9977 86.2805 0
M  V30 53 H  21.6037 36.2723 87.7916 0
M  V30 54 H  19.2295 36.1692 88.4437 0
M  V30 END ATOM
M  V30 BEGIN BOND
M  V30 1 2 1 2
M  V30 2 1 1 34
M  V30 3 1 1 35
M  V30 4 1 2 3
M  V30 5 1 2 36
M  V30 6 2 3 4
M  V30 7 1 3 5
M  V30 8 1 5 6
M  V30 9 1 5 10
M  V30 10 1 6 7
M  V30 11 1 6 37
M  V30 12 1 6 38
M  V30 13 1 7 8
M  V30 14 1 7 39
M  V30 15 1 7 40
M  V30 16 1 8 9
M  V30 17 1 8 11
M  V30 18 1 8 41
M  V30 19 1 9 10
M  V30 20 1 9 42
M  V30 21 1 9 43
M  V30 22 1 10 44
M  V30 23 1 10 45
M  V30 24 1 11 12
M  V30 25 2 12 13
M  V30 26 1 12 14
M  V30 27 1 13 19
M  V30 28 1 13 46
M  V30 29 1 14 15
M  V30 30 2 14 17
M  V30 31 1 15 16
M  V30 32 1 16 47
M  V30 33 1 16 48
M  V30 34 1 16 49
M  V30 35 1 17 18
M  V30 36 1 17 50
M  V30 37 2 18 19
M  V30 38 1 18 20
M  V30 39 1 19 23
M  V30 40 2 20 21
M  V30 41 1 21 22
M  V30 42 1 21 51
M  V30 43 2 22 23
M  V30 44 1 23 24
M  V30 45 1 24 25
M  V30 46 1 24 52
M  V30 47 2 25 26
M  V30 48 1 25 32
M  V30 49 1 26 27
M  V30 50 1 26 53
M  V30 51 2 27 28
M  V30 52 1 27 54
M  V30 53 1 28 29
M  V30 54 1 28 30
M  V30 55 1 30 31
M  V30 56 2 30 32
M  V30 57 1 32 33
M  V30 END BOND
M  V30 END CTAB
M  END
> <s_m_entry_id>
1027

> <s_m_entry_name>
result.751

> <s_m_Source_Path>
D:\OneDrive - zju.edu.cn\DOC\A-Finished\LCK_VS\Planet\LCK-8617

> <s_m_Source_File>
glide-dock_SP_top1262_2_pv.maegz

> <i_m_Source_File_Index>
1027

> <PLANET_affinity>
7.98

> <i_lp_mmshare_version>
54117

> <i_f3d_flags>
0

> <s_epik_input>
W0NIMl09W0NIXUMoPU8pTjFbQ0gyXVtDSDJdW0NIXShbQ0gyXVtDSDJdMSlPYyhjKFtjSF0yKU9bQ0gzXSlbY0hdYyhjMjMpYyhuW2NIXW4zKVtOSF1jNFtjSF1bY0hdYyhDbCljKENsKWM0Rg==

> <s_epik_cmdline>
J2VwaWtfcHl0aG9uJywgJy1waCcsICc3LjAnLCAnLXRuJywgJzgnLCAnLW1hJywgJzUwMCcsICctaW1hZScsICc8aW5maWxlLm1hZT4nLCAnLW9tYWUnLCAnPG91dGZpbGUubWFlPic=

> <r_epik_Ionization_Penalty>
  0.0017

> <r_epik_Ionization_Penalty_Charging>
  0.0000

> <r_epik_Ionization_Penalty_Neutral>
  0.0017

> <r_epik_State_Penalty>
  0.0000

> <r_epik_Charging_Adjusted_Penalty>
0

> <i_epik_Tot_Q>
0

> <i_epik_Tot_abs_Q>
0

> <s_lp_Force_Field>
S-OPLS

> <r_lp_Energy>
45.0035

> <b_lp_Chiralities_Consistent>
1

> <s_lp_Variant>
C=CC(N1CCC(OC2=CC3=C(NC4=CC=C(Cl)C(Cl)=C4F)N=CN=C3C=C2OC)CC1)=O-1

> <s_i_glide_gridfile>
glide-grid_1

> <i_i_glide_lignum>
1316

> <i_i_glide_rotatable_bonds>
7

> <r_i_docking_score>
-7.529893132918

> <r_i_glide_ligand_efficiency>
-0.228178579785394

> <r_i_glide_ligand_efficiency_sa>
-0.731890627178322

> <r_i_glide_ligand_efficiency_ln>
-1.6746092450609

> <r_i_glide_gscore>
-7.529893132918

> <r_i_glide_lipo>
-3.65975205001103

> <r_i_glide_hbond>
-0.00429016377683993

> <r_i_glide_metal>
0

> <r_i_glide_rewards>
-1.34092549497524

> <r_i_glide_evdw>
-45.8649063110352

> <r_i_glide_ecoul>
-4.91743850708008

> <r_i_glide_erotb>
0.505935667458877

> <r_i_glide_esite>
0

> <r_i_glide_emodel>
-68.6949944928847

> <r_i_glide_energy>
-50.7823448181152

> <r_i_glide_einternal>
10.459005355835

> <i_i_glide_confnum>
75

> <i_i_glide_posenum>
8

> <r_i_glide_eff_state_penalty>
0

> <r_lp_tautomer_probability>
1

> <s_m_subgroup_title>
glide-dock_SP_top1262_2_pv

> <s_m_subgroupid>
glide-dock_SP_top1262_2_pv

> <b_m_subgroup_collapsed>
0

$$$$
O=C1N2C(C(C(NC3=CC=CC=C3)C)=CC(C)=C2)=NC(N4CCOCC4)=C1
                    3D
 Schrodinger Suite 2021-3.
  0  0  0     0  0            999 V3000
M  V30 BEGIN CTAB
M  V30 COUNTS 51 54 0 0 0
M  V30 BEGIN ATOM
M  V30 1 C  21.4027 36.1329 85.6132 0
M  V30 2 C  21.0721 35.9939 87.1174 0
M  V30 3 O  20.6888 37.2631 87.6438 0
M  V30 4 C  21.7186 38.2380 87.4833 0
M  V30 5 C  22.0515 38.4035 85.9847 0
M  V30 6 N  22.4764 37.1143 85.4142 0
M  V30 7 C  23.6958 36.8469 84.8199 0
M  V30 8 C  23.8483 35.9558 83.8192 0
M  V30 9 C  25.1469 35.6834 83.2503 0
M  V30 10 O  25.2821 34.7592 82.4450 0
M  V30 11 N  24.7474 37.5745 85.2826 0
M  V30 12 C  25.9209 37.4377 84.7688 0
M  V30 13 N  26.1393 36.5085 83.7353 0
M  V30 14 C  27.0631 38.2193 85.2603 0
M  V30 15 C  28.2816 38.0352 84.6827 0
M  V30 16 C  28.5081 37.0682 83.6150 0
M  V30 17 C  29.8967 36.7746 83.0789 0
M  V30 18 C  27.4225 36.3659 83.2242 0
M  V30 19 C  26.8842 39.2325 86.4074 0 CFG=1
M  V30 20 C  27.0364 38.5718 87.7860 0
M  V30 21 N  27.7479 40.4100 86.3487 0
M  V30 22 C  27.4050 41.6202 85.7234 0
M  V30 23 C  26.0887 41.9832 85.4053 0
M  V30 24 C  25.8283 43.2254 84.8332 0
M  V30 25 C  26.8802 44.0916 84.5459 0
M  V30 26 C  28.1912 43.7340 84.8450 0
M  V30 27 C  28.4491 42.5038 85.4439 0
M  V30 28 H  20.5688 36.2724 84.9263 0
M  V30 29 H  21.7739 35.1565 85.3026 0
M  V30 30 H  21.9212 35.5857 87.6686 0
M  V30 31 H  20.2597 35.2810 87.2591 0
M  V30 32 H  22.6121 37.9591 88.0434 0
M  V30 33 H  21.3867 39.1893 87.8980 0
M  V30 34 H  22.8869 39.1031 85.9328 0
M  V30 35 H  21.3268 38.9312 85.3638 0
M  V30 36 H  23.0085 35.4021 83.4340 0
M  V30 37 H  29.1304 38.6075 85.0313 0
M  V30 38 H  29.9496 35.8192 82.5513 0
M  V30 39 H  30.2527 37.5888 82.4453 0
M  V30 40 H  30.5966 36.7060 83.9133 0
M  V30 41 H  27.5304 35.6024 82.4593 0
M  V30 42 H  25.8508 39.5710 86.3763 0
M  V30 43 H  26.4749 37.6402 87.8524 0
M  V30 44 H  28.0785 38.3581 88.0187 0
M  V30 45 H  26.6662 39.2313 88.5724 0
M  V30 46 H  28.7210 40.2684 86.5744 0
M  V30 47 H  25.2501 41.3388 85.6078 0
M  V30 48 H  24.8153 43.5111 84.5866 0
M  V30 49 H  26.6755 45.0433 84.0769 0
M  V30 50 H  29.0070 44.4048 84.6119 0
M  V30 51 H  29.4707 42.2404 85.6778 0
M  V30 END ATOM
M  V30 BEGIN BOND
M  V30 1 1 1 2
M  V30 2 1 1 6
M  V30 3 1 1 28
M  V30 4 1 1 29
M  V30 5 1 2 3
M  V30 6 1 2 30
M  V30 7 1 2 31
M  V30 8 1 3 4
M  V30 9 1 4 5
M  V30 10 1 4 32
M  V30 11 1 4 33
M  V30 12 1 5 6
M  V30 13 1 5 34
M  V30 14 1 5 35
M  V30 15 1 6 7
M  V30 16 2 7 8
M  V30 17 1 7 11
M  V30 18 1 8 9
M  V30 19 1 8 36
M  V30 20 2 9 10
M  V30 21 1 9 13
M  V30 22 2 11 12
M  V30 23 1 12 13
M  V30 24 1 12 14
M  V30 25 1 13 18
M  V30 26 2 14 15
M  V30 27 1 14 19
M  V30 28 1 15 16
M  V30 29 1 15 37
M  V30 30 1 16 17
M  V30 31 2 16 18
M  V30 32 1 17 38
M  V30 33 1 17 39
M  V30 34 1 17 40
M  V30 35 1 18 41
M  V30 36 1 19 20
M  V30 37 1 19 21
M  V30 38 1 19 42
M  V30 39 1 20 43
M  V30 40 1 20 44
M  V30 41 1 20 45
M  V30 42 1 21 22
M  V30 43 1 21 46
M  V30 44 2 22 23
M  V30 45 1 22 27
M  V30 46 1 23 24
M  V30 47 1 23 47
M  V30 48 2 24 25
M  V30 49 1 24 48
M  V30 50 1 25 26
M  V30 51 1 25 49
M  V30 52 2 26 27
M  V30 53 1 26 50
M  V30 54 1 27 51
M  V30 END BOND
M  V30 END CTAB
M  END
> <s_m_entry_id>
1032

> <s_m_entry_name>
result.6593

> <s_m_Source_Path>
D:\OneDrive - zju.edu.cn\DOC\A-Finished\LCK_VS\Planet\LCK-8617

> <s_m_Source_File>
glide-dock_SP_top1262_2_pv.maegz

> <i_m_Source_File_Index>
1032

> <PLANET_affinity>
7.499

> <i_lp_mmshare_version>
54117

> <i_f3d_flags>
0

> <s_epik_input>
W0NIMl0xW0NIMl1PW0NIMl1bQ0gyXU4xYyhuMilbY0hdYyg9TyluKGMyMylbY0hdYyhbQ0gzXSlbY0hdYzNbQ0BASF0oW0NIM10pW05IXWM0W2NIXVtjSF1bY0hdW2NIXVtjSF00

> <s_epik_cmdline>
J2VwaWtfcHl0aG9uJywgJy1waCcsICc3LjAnLCAnLXRuJywgJzgnLCAnLW1hJywgJzUwMCcsICctaW1hZScsICc8aW5maWxlLm1hZT4nLCAnLW9tYWUnLCAnPG91dGZpbGUubWFlPic=

> <r_epik_Ionization_Penalty>
  0.0000

> <r_epik_Ionization_Penalty_Charging>
  0.0000

> <r_epik_Ionization_Penalty_Neutral>
  0.0000

> <r_epik_State_Penalty>
  0.0000

> <r_epik_Charging_Adjusted_Penalty>
1.622e-09

> <i_epik_Tot_Q>
0

> <i_epik_Tot_abs_Q>
0

> <s_epik_Chemistry_Notes>
This compound has an imine and may undergo hydrolysis.

> <s_lp_Force_Field>
S-OPLS

> <r_lp_Energy>
33.0498

> <b_lp_Chiralities_Consistent>
1

> <s_lp_Variant>
O=C1N2C(C(C(NC3=CC=CC=C3)C)=CC(C)=C2)=NC(N4CCOCC4)=C1-1

> <s_i_glide_gridfile>
glide-grid_1

> <i_i_glide_lignum>
1942

> <i_i_glide_rotatable_bonds>
4

> <r_i_docking_score>
-7.52808572906481

> <r_i_glide_ligand_efficiency>
-0.278817989965363

> <r_i_glide_ligand_efficiency_sa>
-0.836453968977152

> <r_i_glide_ligand_efficiency_ln>
-1.75241424753331

> <r_i_glide_gscore>
-7.52808572906481

> <r_i_glide_lipo>
-2.77273938527709

> <r_i_glide_hbond>
-0.32

> <r_i_glide_metal>
0

> <r_i_glide_rewards>
-2.24424411519307

> <r_i_glide_evdw>
-37.8312454223633

> <r_i_glide_ecoul>
-5.85684442520142

> <r_i_glide_erotb>
0.578986706303724

> <r_i_glide_esite>
0

> <r_i_glide_emodel>
-61.3640479909701

> <r_i_glide_energy>
-43.6880898475647

> <r_i_glide_einternal>
3.66229462623596

> <i_i_glide_confnum>
29

> <i_i_glide_posenum>
178

> <r_i_glide_eff_state_penalty>
0

> <r_lp_tautomer_probability>
1

> <s_m_subgroup_title>
glide-dock_SP_top1262_2_pv

> <s_m_subgroupid>
glide-dock_SP_top1262_2_pv

> <b_m_subgroup_collapsed>
0

$$$$
O=C(C(C=C(C1=NC(NC2=CC=NN2C)=NC=C1)S3)=C3C4(C)C)N4CCN5CCOCC5
                    3D
 Schrodinger Suite 2021-3.
  0  0  0     0  0            999 V3000
M  V30 BEGIN CTAB
M  V30 COUNTS 59 63 0 0 0
M  V30 BEGIN ATOM
M  V30 1 C  19.5997 37.7786 84.2659 0
M  V30 2 C  18.3612 37.9575 85.1735 0
M  V30 3 O  18.7538 38.1399 86.5265 0
M  V30 4 C  19.5007 37.0341 87.0110 0
M  V30 5 C  20.7974 36.8742 86.1902 0
M  V30 6 N  20.5569 36.7570 84.7384 0
M  V30 7 C  21.7899 36.8806 83.9404 0
M  V30 8 C  22.9536 35.9310 84.3191 0
M  V30 9 N  24.3022 36.4957 84.1029 0
M  V30 10 C  25.1812 35.8966 83.2449 0
M  V30 11 O  24.9441 34.9921 82.4435 0
M  V30 12 C  24.8974 37.5372 84.9620 0
M  V30 13 C  24.2911 38.9401 84.7664 0
M  V30 14 C  24.8733 37.1547 86.4432 0
M  V30 15 C  26.2808 37.4988 84.4468 0
M  V30 16 C  26.4402 36.5509 83.4848 0
M  V30 17 S  27.7260 38.3593 84.8236 0
M  V30 18 C  28.6107 37.4207 83.6426 0
M  V30 19 C  27.7628 36.4853 83.0247 0
M  V30 20 C  30.0604 37.7064 83.3967 0
M  V30 21 N  30.6638 36.8977 82.4833 0
M  V30 22 C  31.9451 37.1880 82.1439 0
M  V30 23 N  32.6810 38.2051 82.6677 0
M  V30 24 C  32.0722 38.9806 83.5974 0
M  V30 25 C  30.7528 38.7708 83.9948 0
M  V30 26 N  32.5018 36.3562 81.1698 0
M  V30 27 C  33.6545 36.5489 80.4394 0
M  V30 28 C  34.4538 37.6570 80.1938 0
M  V30 29 C  35.4469 37.2260 79.3134 0
M  V30 30 N  35.3226 35.9539 79.0152 0
M  V30 31 N  34.2475 35.5412 79.7043 0
M  V30 32 C  33.8303 34.1512 79.5493 0
M  V30 33 H  19.2989 37.5560 83.2425 0
M  V30 34 H  20.0974 38.7496 84.2217 0
M  V30 35 H  17.7925 38.8327 84.8583 0
M  V30 36 H  17.6833 37.1129 85.0843 0
M  V30 37 H  19.7458 37.2139 88.0561 0
M  V30 38 H  18.9042 36.1209 86.9888 0
M  V30 39 H  21.4218 37.7503 86.3751 0
M  V30 40 H  21.3583 36.0194 86.5656 0
M  V30 41 H  21.5488 36.6946 82.8934 0
M  V30 42 H  22.1179 37.9147 83.9767 0
M  V30 43 H  22.9150 35.6555 85.3685 0
M  V30 44 H  22.8193 34.9920 83.7786 0
M  V30 45 H  24.9417 39.7172 85.1699 0
M  V30 46 H  24.1359 39.1595 83.7154 0
M  V30 47 H  23.3364 39.0480 85.2815 0
M  V30 48 H  25.4667 37.8472 87.0442 0
M  V30 49 H  23.8532 37.1825 86.8322 0
M  V30 50 H  25.2827 36.1556 86.5945 0
M  V30 51 H  28.0942 35.7951 82.2625 0
M  V30 52 H  32.6556 39.7890 84.0138 0
M  V30 53 H  30.2953 39.4300 84.7169 0
M  V30 54 H  31.8786 35.6034 80.9070 0
M  V30 55 H  34.3166 38.6542 80.5826 0
M  V30 56 H  36.2381 37.8313 78.8945 0
M  V30 57 H  33.2831 34.0430 78.6118 0
M  V30 58 H  34.7013 33.4974 79.5375 0
M  V30 59 H  33.1889 33.8511 80.3759 0
M  V30 END ATOM
M  V30 BEGIN BOND
M  V30 1 1 1 2
M  V30 2 1 1 6
M  V30 3 1 1 33
M  V30 4 1 1 34
M  V30 5 1 2 3
M  V30 6 1 2 35
M  V30 7 1 2 36
M  V30 8 1 3 4
M  V30 9 1 4 5
M  V30 10 1 4 37
M  V30 11 1 4 38
M  V30 12 1 5 6
M  V30 13 1 5 39
M  V30 14 1 5 40
M  V30 15 1 6 7
M  V30 16 1 7 8
M  V30 17 1 7 41
M  V30 18 1 7 42
M  V30 19 1 8 9
M  V30 20 1 8 43
M  V30 21 1 8 44
M  V30 22 1 9 10
M  V30 23 1 9 12
M  V30 24 2 10 11
M  V30 25 1 10 16
M  V30 26 1 12 13
M  V30 27 1 12 14
M  V30 28 1 12 15
M  V30 29 1 13 45
M  V30 30 1 13 46
M  V30 31 1 13 47
M  V30 32 1 14 48
M  V30 33 1 14 49
M  V30 34 1 14 50
M  V30 35 2 15 16
M  V30 36 1 15 17
M  V30 37 1 16 19
M  V30 38 1 17 18
M  V30 39 2 18 19
M  V30 40 1 18 20
M  V30 41 1 19 51
M  V30 42 2 20 21
M  V30 43 1 20 25
M  V30 44 1 21 22
M  V30 45 2 22 23
M  V30 46 1 22 26
M  V30 47 1 23 24
M  V30 48 2 24 25
M  V30 49 1 24 52
M  V30 50 1 25 53
M  V30 51 1 26 27
M  V30 52 1 26 54
M  V30 53 2 27 28
M  V30 54 1 27 31
M  V30 55 1 28 29
M  V30 56 1 28 55
M  V30 57 2 29 30
M  V30 58 1 29 56
M  V30 59 1 30 31
M  V30 60 1 31 32
M  V30 61 1 32 57
M  V30 62 1 32 58
M  V30 63 1 32 59
M  V30 END BOND
M  V30 END CTAB
M  END
> <s_m_entry_id>
1042

> <s_m_entry_name>
result.6510

> <s_m_Source_Path>
D:\OneDrive - zju.edu.cn\DOC\A-Finished\LCK_VS\Planet\LCK-8617

> <s_m_Source_File>
glide-dock_SP_top1262_2_pv.maegz

> <i_m_Source_File_Index>
1042

> <PLANET_affinity>
7.277

> <i_lp_mmshare_version>
54117

> <i_f3d_flags>
0

> <s_epik_input>
W0NIMl0xW0NIMl1PW0NIMl1bQ0gyXU4xW0NIMl1bQ0gyXU4oQzIoW0NIM10pW0NIM10pQyg9TyljKGMyMylbY0hdYyhzMyktYzRuYyhuW2NIXVtjSF00KVtOSF1jNVtjSF1bY0hdbm41W0NIM10=

> <s_epik_cmdline>
J2VwaWtfcHl0aG9uJywgJy1waCcsICc3LjAnLCAnLXRuJywgJzgnLCAnLW1hJywgJzUwMCcsICctaW1hZScsICc8aW5maWxlLm1hZT4nLCAnLW9tYWUnLCAnPG91dGZpbGUubWFlPic=

> <r_epik_Ionization_Penalty>
  0.1691

> <r_epik_Ionization_Penalty_Charging>
  0.0000

> <r_epik_Ionization_Penalty_Neutral>
  0.1691

> <r_epik_State_Penalty>
  0.1583

> <r_epik_Charging_Adjusted_Penalty>
0.158299

> <i_epik_Tot_Q>
0

> <i_epik_Tot_abs_Q>
0

> <s_lp_Force_Field>
S-OPLS

> <r_lp_Energy>
28.2517

> <b_lp_Chiralities_Consistent>
1

> <s_lp_Variant>
O=C(C(C=C(C1=NC(NC2=CC=NN2C)=NC=C1)S3)=C3C4(C)C)N4CCN5CCOCC5-1

> <s_i_glide_gridfile>
glide-grid_1

> <i_i_glide_lignum>
2276

> <i_i_glide_rotatable_bonds>
6

> <r_i_docking_score>
-7.52383260460792

> <r_i_glide_ligand_efficiency>
-0.235119768893997

> <r_i_glide_ligand_efficiency_sa>
-0.74645873609936

> <r_i_glide_ligand_efficiency_ln>
-1.68479121210257

> <r_i_glide_gscore>
-7.68213260460792

> <r_i_glide_lipo>
-2.82262126864822

> <r_i_glide_hbond>
-0.739517233033859

> <r_i_glide_metal>
0

> <r_i_glide_rewards>
-1.67981735518089

> <r_i_glide_evdw>
-39.5361137390137

> <r_i_glide_ecoul>
-6.73804330825806

> <r_i_glide_erotb>
0.585484374721068

> <r_i_glide_esite>
-0.0381489392766198

> <r_i_glide_emodel>
-65.1617735799779

> <r_i_glide_energy>
-46.2741570472717

> <r_i_glide_einternal>
10.6426830291748

> <i_i_glide_confnum>
135

> <i_i_glide_posenum>
165

> <r_i_glide_eff_state_penalty>
0.1583

> <r_lp_tautomer_probability>
1

> <s_m_subgroup_title>
glide-dock_SP_top1262_2_pv

> <s_m_subgroupid>
glide-dock_SP_top1262_2_pv

> <b_m_subgroup_collapsed>
0

$$$$
N#CC1=C(C2=CC(NC(/C=C/CN(C)C)=O)=C(OCC)C=C2N=C1)NC3=CC(Cl)=C(C=C3)F
                    3D
 Schrodinger Suite 2021-3.
  0  0  0     0  0            999 V3000
M  V30 BEGIN CTAB
M  V30 COUNTS 57 59 0 0 0
M  V30 BEGIN ATOM
M  V30 1 C  25.7114 38.4669 87.1683 0
M  V30 2 C  26.2607 39.1558 88.2505 0
M  V30 3 C  25.6634 40.3282 88.7092 0
M  V30 4 F  26.1938 40.9747 89.7719 0
M  V30 5 C  24.5175 40.8170 88.0736 0
M  V30 6 Cl 23.7525 42.2597 88.6350 0
M  V30 7 C  23.9864 40.1389 86.9742 0
M  V30 8 C  24.5865 38.9686 86.4992 0
M  V30 9 N  24.0023 38.3286 85.3924 0
M  V30 10 C  24.4428 37.3040 84.5185 0
M  V30 11 C  23.5056 36.3563 84.0475 0
M  V30 12 C  22.0837 36.3955 84.3865 0
M  V30 13 N  20.9594 36.4314 84.6529 0
M  V30 14 C  23.9354 35.3299 83.2085 0
M  V30 15 N  25.2191 35.1564 82.8276 0
M  V30 16 C  26.1424 36.0659 83.2365 0
M  V30 17 C  25.7977 37.1924 84.0459 0
M  V30 18 C  27.4864 35.8615 82.8423 0
M  V30 19 C  28.4952 36.7476 83.2429 0
M  V30 20 O  29.8406 36.5598 82.9858 0
M  V30 21 C  30.2510 35.6127 82.0134 0
M  V30 22 C  31.7827 35.5591 82.0428 0
M  V30 23 C  28.1421 37.8953 83.9507 0
M  V30 24 C  26.8198 38.1424 84.3114 0
M  V30 25 N  29.1467 38.7720 84.3703 0
M  V30 26 C  29.2448 40.0732 84.0296 0
M  V30 27 O  28.4818 40.6403 83.2445 0
M  V30 28 C  30.3258 40.7854 84.6656 0
M  V30 29 C  30.7602 40.5443 85.9266 0
M  V30 30 C  31.8629 41.2561 86.7088 0
M  V30 31 N  32.4109 42.6124 86.1946 0 CHG=1
M  V30 32 C  33.3330 42.5001 84.9597 0
M  V30 33 C  31.3260 43.7022 86.0435 0
M  V30 34 H  26.1705 37.5432 86.8516 0
M  V30 35 H  27.1398 38.7704 88.7473 0
M  V30 36 H  23.1075 40.5347 86.4845 0
M  V30 37 H  23.0192 38.5360 85.2943 0
M  V30 38 H  23.2431 34.5829 82.8378 0
M  V30 39 H  27.7133 34.9845 82.2551 0
M  V30 40 H  29.8519 34.6220 82.2252 0
M  V30 41 H  29.8952 35.9237 81.0300 0
M  V30 42 H  32.1681 34.8391 81.3193 0
M  V30 43 H  32.2136 36.5318 81.8034 0
M  V30 44 H  32.1440 35.2617 83.0287 0
M  V30 45 H  26.5848 39.0553 84.8338 0
M  V30 46 H  29.9504 38.3432 84.8043 0
M  V30 47 H  30.7417 41.5567 84.0423 0
M  V30 48 H  30.2868 39.7604 86.5062 0
M  V30 49 H  32.7289 40.6036 86.8361 0
M  V30 50 H  31.4827 41.4952 87.7040 0
M  V30 51 H  32.7704 42.1399 84.1010 0
M  V30 52 H  34.1369 41.8071 85.2154 0
M  V30 53 H  33.7349 43.4957 84.7588 0
M  V30 54 H  30.6326 43.4189 85.2522 0
M  V30 55 H  30.8090 43.7889 87.0014 0
M  V30 56 H  31.8290 44.6371 85.7900 0
M  V30 57 H  33.0138 42.9456 86.9359 0
M  V30 END ATOM
M  V30 BEGIN BOND
M  V30 1 2 1 2
M  V30 2 1 1 8
M  V30 3 1 1 34
M  V30 4 1 2 3
M  V30 5 1 2 35
M  V30 6 1 3 4
M  V30 7 2 3 5
M  V30 8 1 5 6
M  V30 9 1 5 7
M  V30 10 2 7 8
M  V30 11 1 7 36
M  V30 12 1 8 9
M  V30 13 1 9 10
M  V30 14 1 9 37
M  V30 15 2 10 11
M  V30 16 1 10 17
M  V30 17 1 11 12
M  V30 18 1 11 14
M  V30 19 3 12 13
M  V30 20 2 14 15
M  V30 21 1 14 38
M  V30 22 1 15 16
M  V30 23 2 16 17
M  V30 24 1 16 18
M  V30 25 1 17 24
M  V30 26 2 18 19
M  V30 27 1 18 39
M  V30 28 1 19 20
M  V30 29 1 19 23
M  V30 30 1 20 21
M  V30 31 1 21 22
M  V30 32 1 21 40
M  V30 33 1 21 41
M  V30 34 1 22 42
M  V30 35 1 22 43
M  V30 36 1 22 44
M  V30 37 2 23 24
M  V30 38 1 23 25
M  V30 39 1 24 45
M  V30 40 1 25 26
M  V30 41 1 25 46
M  V30 42 2 26 27
M  V30 43 1 26 28
M  V30 44 2 28 29
M  V30 45 1 28 47
M  V30 46 1 29 30
M  V30 47 1 29 48
M  V30 48 1 30 31
M  V30 49 1 30 49
M  V30 50 1 30 50
M  V30 51 1 31 32
M  V30 52 1 31 33
M  V30 53 1 31 57
M  V30 54 1 32 51
M  V30 55 1 32 52
M  V30 56 1 32 53
M  V30 57 1 33 54
M  V30 58 1 33 55
M  V30 59 1 33 56
M  V30 END BOND
M  V30 END CTAB
M  END
> <s_m_entry_id>
1043

> <s_m_entry_name>
result.774

> <s_m_Source_Path>
D:\OneDrive - zju.edu.cn\DOC\A-Finished\LCK_VS\Planet\LCK-8617

> <s_m_Source_File>
glide-dock_SP_top1262_2_pv.maegz

> <i_m_Source_File_Index>
1043

> <PLANET_affinity>
9.008

> <i_lp_mmshare_version>
54117

> <i_f3d_flags>
0

> <s_epik_input>
RmMxW2NIXVtjSF1jKFtjSF1jMUNsKVtOSF1jKGMoQyNOKVtjSF1uMiljKGMyMylbY0hdYyhjKFtjSF0zKU9bQ0gyXVtDSDNdKVtOSF1DKD1PKS9bQ0hdPVtDSF0vW0NIMl1OKFtDSDNdKVtDSDNd

> <s_epik_cmdline>
J2VwaWtfcHl0aG9uJywgJy1waCcsICc3LjAnLCAnLXRuJywgJzgnLCAnLW1hJywgJzUwMCcsICctaW1hZScsICc8aW5maWxlLm1hZT4nLCAnLW9tYWUnLCAnPG91dGZpbGUubWFlPic=

> <r_epik_Ionization_Penalty>
  0.1653

> <r_epik_Ionization_Penalty_Charging>
  0.1646

> <r_epik_Ionization_Penalty_Neutral>
  0.0007

> <r_epik_State_Penalty>
  0.1823

> <r_epik_Charging_Adjusted_Penalty>
0.346862

> <i_epik_Tot_Q>
1

> <i_epik_Tot_abs_Q>
1

> <s_lp_Force_Field>
S-OPLS

> <r_lp_Energy>
64.0945

> <b_lp_Chiralities_Consistent>
1

> <s_lp_Variant>
N#CC1=C(C2=CC(NC(/C=C/CN(C)C)=O)=C(OCC)C=C2N=C1)NC3=CC(Cl)=C(C=C3)F-1

> <s_i_glide_gridfile>
glide-grid_1

> <i_i_glide_lignum>
509

> <i_i_glide_rotatable_bonds>
9

> <r_i_docking_score>
-7.52318321325727

> <r_i_glide_ligand_efficiency>
-0.227975248886584

> <r_i_glide_ligand_efficiency_sa>
-0.7312384363408

> <r_i_glide_ligand_efficiency_ln>
-1.67311699367046

> <r_i_glide_gscore>
-7.70548321325727

> <r_i_glide_lipo>
-2.1533684781565

> <r_i_glide_hbond>
-0.667579309006642

> <r_i_glide_metal>
0

> <r_i_glide_rewards>
-1.65264149871609

> <r_i_glide_evdw>
-39.465015411377

> <r_i_glide_ecoul>
-12.3578271865845

> <r_i_glide_erotb>
0.642829772099876

> <r_i_glide_esite>
-0.0477988509213925

> <r_i_glide_emodel>
-78.0682518795157

> <r_i_glide_energy>
-51.8228425979614

> <r_i_glide_einternal>
6.60054159164429

> <i_i_glide_confnum>
170

> <i_i_glide_posenum>
180

> <r_i_glide_eff_state_penalty>
0.1823

> <s_m_subgroup_title>
glide-dock_SP_top1262_2_pv

> <s_m_subgroupid>
glide-dock_SP_top1262_2_pv

> <b_m_subgroup_collapsed>
0

$$$$
O=C(N(C1CC1)CO2)C3=C2C=C4C(N=NN(CCC5=CC(F)=CC=C5)C4=O)=C3
                    3D
 Schrodinger Suite 2021-3.
  0  0  0     0  0            999 V3000
M  V30 BEGIN CTAB
M  V30 COUNTS 45 49 0 0 0
M  V30 BEGIN ATOM
M  V30 1 C  29.5484 36.5058 82.2110 0
M  V30 2 C  29.6355 35.5568 83.3699 0
M  V30 3 C  28.3302 35.6902 82.6139 0
M  V30 4 N  27.1652 36.3462 83.2512 0
M  V30 5 C  25.9364 35.7476 83.1367 0
M  V30 6 O  25.7083 34.7554 82.4431 0
M  V30 7 C  27.3199 37.5946 84.0033 0
M  V30 8 O  26.6082 37.5518 85.2191 0
M  V30 9 C  25.2830 37.2244 85.0549 0
M  V30 10 C  24.8899 36.3734 84.0187 0
M  V30 11 C  24.3532 37.7413 85.9520 0
M  V30 12 C  22.9988 37.4357 85.7710 0
M  V30 13 C  22.5909 36.6078 84.7216 0
M  V30 14 C  23.5377 36.0327 83.8679 0
M  V30 15 N  21.2394 36.3573 84.4817 0
M  V30 16 N  20.3377 36.8850 85.2451 0
M  V30 17 N  20.6879 37.6977 86.3133 0
M  V30 18 C  21.9684 37.9812 86.7236 0
M  V30 19 O  22.2475 38.6204 87.7425 0
M  V30 20 C  19.5717 38.3901 86.9848 0
M  V30 21 C  19.1992 39.7563 86.3591 0
M  V30 22 C  20.3784 40.6725 86.0483 0
M  V30 23 C  20.9764 40.6327 84.7867 0
M  V30 24 C  22.0307 41.4890 84.4766 0
M  V30 25 F  22.5768 41.4690 83.2436 0
M  V30 26 C  22.5081 42.3787 85.4359 0
M  V30 27 C  21.9402 42.4017 86.7091 0
M  V30 28 C  20.8765 41.5498 87.0153 0
M  V30 29 H  30.0451 36.2535 81.2736 0
M  V30 30 H  29.6094 37.5679 82.4424 0
M  V30 31 H  29.7047 35.9568 84.3818 0
M  V30 32 H  30.2167 34.6462 83.2415 0
M  V30 33 H  28.0763 34.8364 81.9817 0
M  V30 34 H  26.9063 38.4446 83.4552 0
M  V30 35 H  28.3438 37.7934 84.3139 0
M  V30 36 H  24.6848 38.3821 86.7563 0
M  V30 37 H  23.2157 35.3674 83.0786 0
M  V30 38 H  19.7721 38.5388 88.0441 0
M  V30 39 H  18.6818 37.7600 87.0031 0
M  V30 40 H  18.4831 40.2807 86.9935 0
M  V30 41 H  18.6406 39.5791 85.4386 0
M  V30 42 H  20.6187 39.9385 84.0449 0
M  V30 43 H  23.3085 43.0573 85.1837 0
M  V30 44 H  22.3028 43.1015 87.4467 0
M  V30 45 H  20.4254 41.5996 87.9933 0
M  V30 END ATOM
M  V30 BEGIN BOND
M  V30 1 1 1 2
M  V30 2 1 1 3
M  V30 3 1 1 29
M  V30 4 1 1 30
M  V30 5 1 2 3
M  V30 6 1 2 31
M  V30 7 1 2 32
M  V30 8 1 3 4
M  V30 9 1 3 33
M  V30 10 1 4 5
M  V30 11 1 4 7
M  V30 12 2 5 6
M  V30 13 1 5 10
M  V30 14 1 7 8
M  V30 15 1 7 34
M  V30 16 1 7 35
M  V30 17 1 8 9
M  V30 18 2 9 10
M  V30 19 1 9 11
M  V30 20 1 10 14
M  V30 21 2 11 12
M  V30 22 1 11 36
M  V30 23 1 12 13
M  V30 24 1 12 18
M  V30 25 2 13 14
M  V30 26 1 13 15
M  V30 27 1 14 37
M  V30 28 2 15 16
M  V30 29 1 16 17
M  V30 30 1 17 18
M  V30 31 1 17 20
M  V30 32 2 18 19
M  V30 33 1 20 21
M  V30 34 1 20 38
M  V30 35 1 20 39
M  V30 36 1 21 22
M  V30 37 1 21 40
M  V30 38 1 21 41
M  V30 39 2 22 23
M  V30 40 1 22 28
M  V30 41 1 23 24
M  V30 42 1 23 42
M  V30 43 1 24 25
M  V30 44 2 24 26
M  V30 45 1 26 27
M  V30 46 1 26 43
M  V30 47 2 27 28
M  V30 48 1 27 44
M  V30 49 1 28 45
M  V30 END BOND
M  V30 END CTAB
M  END
> <s_m_entry_id>
1062

> <s_m_entry_name>
result.2253

> <s_m_Source_Path>
D:\OneDrive - zju.edu.cn\DOC\A-Finished\LCK_VS\Planet\LCK-8617

> <s_m_Source_File>
glide-dock_SP_top1262_2_pv.maegz

> <i_m_Source_File_Index>
1062

> <PLANET_affinity>
7.416

> <i_lp_mmshare_version>
54117

> <i_f3d_flags>
0

> <s_epik_input>
W0NIMl0xW0NIMl1bQ0hdMU4oW0NIMl1PMilDKD1PKWMoYzIzKVtjSF1jNGMoW2NIXTMpYyg9TyluKG5uNClbQ0gyXVtDSDJdYzVbY0hdYyhGKVtjSF1bY0hdW2NIXTU=

> <s_epik_cmdline>
J2VwaWtfcHl0aG9uJywgJy1waCcsICc3LjAnLCAnLXRuJywgJzgnLCAnLW1hJywgJzUwMCcsICctaW1hZScsICc8aW5maWxlLm1hZT4nLCAnLW9tYWUnLCAnPG91dGZpbGUubWFlPic=

> <r_epik_Ionization_Penalty>
  0.0000

> <r_epik_Ionization_Penalty_Charging>
  0.0000

> <r_epik_Ionization_Penalty_Neutral>
  0.0000

> <r_epik_State_Penalty>
  0.0000

> <r_epik_Charging_Adjusted_Penalty>
2.73061e-11

> <i_epik_Tot_Q>
0

> <i_epik_Tot_abs_Q>
0

> <s_epik_Chemistry_Notes>
This compound contains an acetal/aminal-like group ( X-CH(R)-Y where X, Y are N, S, or O) that may be acid/base labile, releasing an aldehyde.

> <s_lp_Force_Field>
S-OPLS

> <r_lp_Energy>
45.38

> <b_lp_Chiralities_Consistent>
1

> <s_lp_Variant>
O=C(N(C1CC1)CO2)C3=C2C=C4C(N=NN(CCC5=CC(F)=CC=C5)C4=O)=C3-1

> <s_i_glide_gridfile>
glide-grid_1

> <i_i_glide_lignum>
2068

> <i_i_glide_rotatable_bonds>
4

> <r_i_docking_score>
-7.50451252701651

> <r_i_glide_ligand_efficiency>
-0.268018304536304

> <r_i_glide_ligand_efficiency_sa>
-0.813861426911769

> <r_i_glide_ligand_efficiency_ln>
-1.73226183329767

> <r_i_glide_gscore>
-7.50451252701651

> <r_i_glide_lipo>
-2.11817947228345

> <r_i_glide_hbond>
-0.32

> <r_i_glide_metal>
0

> <r_i_glide_rewards>
-2.81988668401141

> <r_i_glide_evdw>
-40.8065528869629

> <r_i_glide_ecoul>
-4.94971561431885

> <r_i_glide_erotb>
0.536338615774318

> <r_i_glide_esite>
0

> <r_i_glide_emodel>
-63.6934613572137

> <r_i_glide_energy>
-45.7562685012817

> <r_i_glide_einternal>
5.04036521911621

> <i_i_glide_confnum>
34

> <i_i_glide_posenum>
220

> <r_i_glide_eff_state_penalty>
0

> <r_lp_tautomer_probability>
1

> <s_m_subgroup_title>
glide-dock_SP_top1262_2_pv

> <s_m_subgroupid>
glide-dock_SP_top1262_2_pv

> <b_m_subgroup_collapsed>
0

$$$$
O=C(CN1CCC(OC2=CC3=C(NC4=CC=CC(Cl)=C4F)N=CN=C3C=C2OC)CC1)NC
                    3D
 Schrodinger Suite 2021-3.
  0  0  0     0  0            999 V3000
M  V30 BEGIN CTAB
M  V30 COUNTS 59 62 0 0 0
M  V30 BEGIN ATOM
M  V30 1 C  28.6650 46.2408 83.6588 0
M  V30 2 N  28.8829 45.2662 84.7077 0
M  V30 3 C  28.0960 45.1416 85.7894 0
M  V30 4 O  27.1409 45.8833 86.0168 0
M  V30 5 C  28.4119 44.0066 86.7748 0
M  V30 6 N  28.5396 42.6447 86.0348 0 CHG=1 CFG=1
M  V30 7 C  29.2341 41.6040 86.9506 0
M  V30 8 C  29.4029 40.2908 86.1653 0
M  V30 9 C  28.0521 39.7552 85.6600 0 CFG=1
M  V30 10 C  27.3596 40.8191 84.7783 0
M  V30 11 C  27.1550 42.1321 85.5520 0
M  V30 12 O  28.3271 38.5593 84.9385 0
M  V30 13 C  27.3171 37.7439 84.4565 0
M  V30 14 C  25.9875 37.8240 84.8959 0
M  V30 15 C  27.6888 36.7888 83.5039 0
M  V30 16 O  29.0298 36.7441 83.1654 0
M  V30 17 C  29.5007 35.7714 82.2382 0
M  V30 18 C  26.7212 35.9411 82.9476 0
M  V30 19 C  25.3746 36.0081 83.3689 0
M  V30 20 C  24.9940 36.9571 84.3670 0
M  V30 21 N  24.4741 35.1559 82.8062 0
M  V30 22 C  23.1952 35.2522 83.2434 0
M  V30 23 N  22.7202 36.0992 84.1808 0
M  V30 24 C  23.6128 36.9494 84.7429 0
M  V30 25 N  23.1101 37.8552 85.6955 0
M  V30 26 C  21.7859 38.0189 86.1436 0
M  V30 27 C  21.1879 39.2745 86.0020 0
M  V30 28 C  19.8858 39.4964 86.4582 0
M  V30 29 C  19.1792 38.4637 87.0720 0
M  V30 30 C  19.7761 37.2137 87.2444 0
M  V30 31 Cl 18.8910 35.9630 88.0434 0
M  V30 32 C  21.0826 36.9898 86.7930 0
M  V30 33 F  21.6623 35.7814 86.9990 0
M  V30 34 H  29.2828 45.9564 82.8131 0
M  V30 35 H  28.9581 47.2405 83.9798 0
M  V30 36 H  27.6239 46.2584 83.3271 0
M  V30 37 H  29.6961 44.6758 84.5809 0
M  V30 38 H  29.3708 44.1957 87.2641 0
M  V30 39 H  27.6420 43.8897 87.5418 0
M  V30 40 H  30.2019 42.0144 87.2419 0
M  V30 41 H  28.6142 41.4783 87.8415 0
M  V30 42 H  30.0710 40.4763 85.3228 0
M  V30 43 H  29.8769 39.5537 86.8158 0
M  V30 44 H  27.4454 39.5135 86.5368 0
M  V30 45 H  26.3876 40.4748 84.4263 0
M  V30 46 H  27.9753 41.0289 83.9033 0
M  V30 47 H  26.5256 42.0039 86.4364 0
M  V30 48 H  26.7179 42.9029 84.9156 0
M  V30 49 H  25.6968 38.5384 85.6488 0
M  V30 50 H  30.5880 35.8309 82.1722 0
M  V30 51 H  29.2480 34.7560 82.5496 0
M  V30 52 H  29.1034 35.9562 81.2434 0
M  V30 53 H  26.9868 35.2121 82.1958 0
M  V30 54 H  22.4830 34.5503 82.8438 0
M  V30 55 H  23.7496 38.5803 85.9768 0
M  V30 56 H  21.7231 40.0849 85.5280 0
M  V30 57 H  19.4255 40.4666 86.3375 0
M  V30 58 H  18.1704 38.6415 87.4219 0
M  V30 59 H  29.1296 42.7686 85.2188 0
M  V30 END ATOM
M  V30 BEGIN BOND
M  V30 1 1 1 2
M  V30 2 1 1 34
M  V30 3 1 1 35
M  V30 4 1 1 36
M  V30 5 1 2 3
M  V30 6 1 2 37
M  V30 7 2 3 4
M  V30 8 1 3 5
M  V30 9 1 5 6
M  V30 10 1 5 38
M  V30 11 1 5 39
M  V30 12 1 6 7
M  V30 13 1 6 11
M  V30 14 1 6 59
M  V30 15 1 7 8
M  V30 16 1 7 40
M  V30 17 1 7 41
M  V30 18 1 8 9
M  V30 19 1 8 42
M  V30 20 1 8 43
M  V30 21 1 9 10
M  V30 22 1 9 12
M  V30 23 1 9 44
M  V30 24 1 10 11
M  V30 25 1 10 45
M  V30 26 1 10 46
M  V30 27 1 11 47
M  V30 28 1 11 48
M  V30 29 1 12 13
M  V30 30 2 13 14
M  V30 31 1 13 15
M  V30 32 1 14 20
M  V30 33 1 14 49
M  V30 34 1 15 16
M  V30 35 2 15 18
M  V30 36 1 16 17
M  V30 37 1 17 50
M  V30 38 1 17 51
M  V30 39 1 17 52
M  V30 40 1 18 19
M  V30 41 1 18 53
M  V30 42 2 19 20
M  V30 43 1 19 21
M  V30 44 1 20 24
M  V30 45 2 21 22
M  V30 46 1 22 23
M  V30 47 1 22 54
M  V30 48 2 23 24
M  V30 49 1 24 25
M  V30 50 1 25 26
M  V30 51 1 25 55
M  V30 52 2 26 27
M  V30 53 1 26 32
M  V30 54 1 27 28
M  V30 55 1 27 56
M  V30 56 2 28 29
M  V30 57 1 28 57
M  V30 58 1 29 30
M  V30 59 1 29 58
M  V30 60 1 30 31
M  V30 61 2 30 32
M  V30 62 1 32 33
M  V30 END BOND
M  V30 END CTAB
M  END
> <s_m_entry_id>
1070

> <s_m_entry_name>
result.752

> <s_m_Source_Path>
D:\OneDrive - zju.edu.cn\DOC\A-Finished\LCK_VS\Planet\LCK-8617

> <s_m_Source_File>
glide-dock_SP_top1262_2_pv.maegz

> <i_m_Source_File_Index>
1070

> <PLANET_affinity>
7.762

> <i_lp_mmshare_version>
54117

> <i_f3d_flags>
0

> <s_epik_input>
W0NIM11bTkhdQyg9TylbQ0gyXU4xW0NIMl1bQ0gyXVtDSF0oW0NIMl1bQ0gyXTEpT2MoYyhbY0hdMilPW0NIM10pW2NIXWMoYzIzKWMobltjSF1uMylbTkhdYzRbY0hdW2NIXVtjSF1jKENsKWM0Rg==

> <s_epik_cmdline>
J2VwaWtfcHl0aG9uJywgJy1waCcsICc3LjAnLCAnLXRuJywgJzgnLCAnLW1hJywgJzUwMCcsICctaW1hZScsICc8aW5maWxlLm1hZT4nLCAnLW9tYWUnLCAnPG91dGZpbGUubWFlPic=

> <r_epik_Ionization_Penalty>
  0.1790

> <r_epik_Ionization_Penalty_Charging>
  0.1777

> <r_epik_Ionization_Penalty_Neutral>
  0.0013

> <r_epik_State_Penalty>
  0.1672

> <r_epik_Charging_Adjusted_Penalty>
0.344849

> <i_epik_Tot_Q>
1

> <i_epik_Tot_abs_Q>
1

> <s_lp_Force_Field>
S-OPLS

> <r_lp_Energy>
49.9677

> <b_lp_Chiralities_Consistent>
1

> <s_lp_Variant>
O=C(CN1CCC(OC2=CC3=C(NC4=CC=CC(Cl)=C4F)N=CN=C3C=C2OC)CC1)NC-1

> <s_i_glide_gridfile>
glide-grid_1

> <i_i_glide_lignum>
1545

> <i_i_glide_rotatable_bonds>
8

> <r_i_docking_score>
-7.4975214139008

> <r_i_glide_ligand_efficiency>
-0.227197618603055

> <r_i_glide_ligand_efficiency_sa>
-0.728744160513243

> <r_i_glide_ligand_efficiency_ln>
-1.66740994236326

> <r_i_glide_gscore>
-7.6647214139008

> <r_i_glide_lipo>
-2.93535621211091

> <r_i_glide_hbond>
-0.0708688353513708

> <r_i_glide_metal>
0

> <r_i_glide_rewards>
-1.60984309285637

> <r_i_glide_evdw>
-43.5176315307617

> <r_i_glide_ecoul>
-8.84776782989502

> <r_i_glide_erotb>
0.538348910484935

> <r_i_glide_esite>
-0.0839554330447428

> <r_i_glide_emodel>
-75.9741025507921

> <r_i_glide_energy>
-52.3653993606567

> <r_i_glide_einternal>
12.2023830413818

> <i_i_glide_confnum>
39

> <i_i_glide_posenum>
314

> <r_i_glide_eff_state_penalty>
0.1672

> <r_lp_tautomer_probability>
0.999978

> <s_m_subgroup_title>
glide-dock_SP_top1262_2_pv

> <s_m_subgroupid>
glide-dock_SP_top1262_2_pv

> <b_m_subgroup_collapsed>
0

$$$$
C[C@H](OC1=CC=C2C3=NC(C4=NC=NN4C(C)C)=CN3CCOC2=C1)C(N)=O
                    3D
 Schrodinger Suite 2021-3.
  0  0  0     0  0            999 V3000
M  V30 BEGIN CTAB
M  V30 COUNTS 50 53 0 0 0
M  V30 BEGIN ATOM
M  V30 1 N  29.2824 42.1685 84.8436 0
M  V30 2 C  29.5237 41.1228 84.0523 0
M  V30 3 O  29.2826 41.1566 82.8460 0
M  V30 4 C  30.0833 39.8520 84.7296 0 CFG=2
M  V30 5 C  31.6162 39.7927 84.6095 0
M  V30 6 O  29.5887 38.6631 84.1028 0
M  V30 7 C  28.2647 38.2885 84.2323 0
M  V30 8 C  27.2685 39.0433 84.8706 0
M  V30 9 C  25.9674 38.5622 84.9617 0
M  V30 10 C  27.9306 37.0389 83.7211 0
M  V30 11 C  26.6475 36.5179 83.8704 0
M  V30 12 O  26.4584 35.1861 83.5913 0
M  V30 13 C  25.5470 34.7767 82.5867 0
M  V30 14 C  24.2640 35.5923 82.3877 0
M  V30 15 N  23.6638 35.9938 83.6490 0
M  V30 16 C  24.2477 36.7951 84.6052 0
M  V30 17 C  25.6424 37.2976 84.4674 0
M  V30 18 C  22.3706 35.8519 84.0645 0
M  V30 19 C  22.2723 36.5010 85.2890 0
M  V30 20 N  23.4216 37.0758 85.5897 0
M  V30 21 C  21.1320 36.5836 86.1890 0
M  V30 22 N  20.6696 35.5567 86.8582 0
M  V30 23 C  19.6912 36.0850 87.5726 0
M  V30 24 N  19.4782 37.3720 87.4335 0
M  V30 25 N  20.4049 37.7083 86.5264 0
M  V30 26 C  20.5339 39.1201 86.1294 0
M  V30 27 C  20.7532 39.2837 84.6128 0
M  V30 28 C  21.6163 39.8148 86.9764 0
M  V30 29 H  29.0137 43.0401 84.4108 0
M  V30 30 H  29.5363 42.1557 85.8188 0
M  V30 31 H  29.8320 39.8385 85.7927 0
M  V30 32 H  32.0914 40.6528 85.0837 0
M  V30 33 H  31.9360 39.7691 83.5663 0
M  V30 34 H  32.0076 38.8966 85.0920 0
M  V30 35 H  27.4735 40.0072 85.3059 0
M  V30 36 H  25.2123 39.1697 85.4401 0
M  V30 37 H  28.7015 36.4262 83.2767 0
M  V30 38 H  26.0957 34.7549 81.6471 0
M  V30 39 H  25.2832 33.7548 82.8435 0
M  V30 40 H  24.4962 36.4899 81.8192 0
M  V30 41 H  23.5307 35.0367 81.8013 0
M  V30 42 H  21.6810 35.2897 83.4580 0
M  V30 43 H  19.0926 35.4822 88.2396 0
M  V30 44 H  19.5806 39.6047 86.3571 0
M  V30 45 H  20.6573 40.3309 84.3230 0
M  V30 46 H  20.0183 38.7148 84.0431 0
M  V30 47 H  21.7453 38.9601 84.3014 0
M  V30 48 H  21.6558 40.8834 86.7600 0
M  V30 49 H  22.6073 39.4059 86.7827 0
M  V30 50 H  21.4172 39.7052 88.0430 0
M  V30 END ATOM
M  V30 BEGIN BOND
M  V30 1 1 1 2
M  V30 2 1 1 29
M  V30 3 1 1 30
M  V30 4 2 2 3
M  V30 5 1 2 4
M  V30 6 1 4 5
M  V30 7 1 4 6
M  V30 8 1 4 31
M  V30 9 1 5 32
M  V30 10 1 5 33
M  V30 11 1 5 34
M  V30 12 1 6 7
M  V30 13 2 7 8
M  V30 14 1 7 10
M  V30 15 1 8 9
M  V30 16 1 8 35
M  V30 17 2 9 17
M  V30 18 1 9 36
M  V30 19 2 10 11
M  V30 20 1 10 37
M  V30 21 1 11 12
M  V30 22 1 11 17
M  V30 23 1 12 13
M  V30 24 1 13 14
M  V30 25 1 13 38
M  V30 26 1 13 39
M  V30 27 1 14 15
M  V30 28 1 14 40
M  V30 29 1 14 41
M  V30 30 1 15 16
M  V30 31 1 15 18
M  V30 32 1 16 17
M  V30 33 2 16 20
M  V30 34 2 18 19
M  V30 35 1 18 42
M  V30 36 1 19 20
M  V30 37 1 19 21
M  V30 38 2 21 22
M  V30 39 1 21 25
M  V30 40 1 22 23
M  V30 41 2 23 24
M  V30 42 1 23 43
M  V30 43 1 24 25
M  V30 44 1 25 26
M  V30 45 1 26 27
M  V30 46 1 26 28
M  V30 47 1 26 44
M  V30 48 1 27 45
M  V30 49 1 27 46
M  V30 50 1 27 47
M  V30 51 1 28 48
M  V30 52 1 28 49
M  V30 53 1 28 50
M  V30 END BOND
M  V30 END CTAB
M  END
> <s_m_entry_id>
1074

> <s_m_entry_name>
result.3918

> <s_m_Source_Path>
D:\OneDrive - zju.edu.cn\DOC\A-Finished\LCK_VS\Planet\LCK-8617

> <s_m_Source_File>
glide-dock_SP_top1262_2_pv.maegz

> <i_m_Source_File_Index>
1074

> <PLANET_affinity>
7.629

> <i_lp_mmshare_version>
54117

> <i_f3d_flags>
0

> <s_epik_input>
W05IMl1DKD1PKVtDQEhdKFtDSDNdKU9jKFtjSF0xKVtjSF1bY0hdYyhjMTIpYzNuKFtDSDJdW0NIMl1PMilbY0hdYyhuMyktYzRuW2NIXW5uNFtDSF0oW0NIM10pW0NIM10=

> <s_epik_cmdline>
J2VwaWtfcHl0aG9uJywgJy1waCcsICc3LjAnLCAnLXRuJywgJzgnLCAnLW1hJywgJzUwMCcsICctaW1hZScsICc8aW5maWxlLm1hZT4nLCAnLW9tYWUnLCAnPG91dGZpbGUubWFlPic=

> <r_epik_Ionization_Penalty>
  0.0113

> <r_epik_Ionization_Penalty_Charging>
  0.0113

> <r_epik_Ionization_Penalty_Neutral>
  0.0000

> <r_epik_State_Penalty>
  0.0087

> <r_epik_Charging_Adjusted_Penalty>
0.0200559

> <i_epik_Tot_Q>
0

> <i_epik_Tot_abs_Q>
0

> <s_lp_Force_Field>
S-OPLS

> <r_lp_Energy>
28.6992

> <b_lp_Chiralities_Consistent>
1

> <s_lp_Variant>
C[C@H](OC1=CC=C2C3=NC(C4=NC=NN4C(C)C)=CN3CCOC2=C1)C(N)=O-1

> <s_i_glide_gridfile>
glide-grid_1

> <i_i_glide_lignum>
1751

> <i_i_glide_rotatable_bonds>
5

> <r_i_docking_score>
-7.49434164569254

> <r_i_glide_ligand_efficiency>
-0.267655058774734

> <r_i_glide_ligand_efficiency_sa>
-0.812758398839329

> <r_i_glide_ligand_efficiency_ln>
-1.72991409525804

> <r_i_glide_gscore>
-7.50304164569254

> <r_i_glide_lipo>
-2.26898716309689

> <r_i_glide_hbond>
-0.386262144114754

> <r_i_glide_metal>
0

> <r_i_glide_rewards>
-2.49977516332223

> <r_i_glide_evdw>
-36.5700645446777

> <r_i_glide_ecoul>
-5.37608289718628

> <r_i_glide_erotb>
0.398408694547126

> <r_i_glide_esite>
-0.111510207893967

> <r_i_glide_emodel>
-58.8979274119871

> <r_i_glide_energy>
-41.946147441864

> <r_i_glide_einternal>
6.02424430847168

> <i_i_glide_confnum>
1

> <i_i_glide_posenum>
162

> <r_i_glide_eff_state_penalty>
0.0087

> <r_lp_tautomer_probability>
1

> <s_m_subgroup_title>
glide-dock_SP_top1262_2_pv

> <s_m_subgroupid>
glide-dock_SP_top1262_2_pv

> <b_m_subgroup_collapsed>
0

$$$$
O=C(NC1=C(C(N)=O)C(OCC2=C(F)C=C(Br)C=C2F)=NS1)NCCCCN3CCCC3.[H]Cl
                    3D
 Schrodinger Suite 2021-3.
  0  0  0     0  0            999 V3000
M  V30 BEGIN CTAB
M  V30 COUNTS 57 59 0 0 0
M  V30 BEGIN ATOM
M  V30 1 C  33.8402 32.9187 84.0342 0
M  V30 2 C  33.6681 31.4646 83.6023 0
M  V30 3 C  33.7463 31.4476 82.0725 0
M  V30 4 C  33.7878 32.9064 81.6064 0
M  V30 5 N  33.3220 33.7215 82.8281 0 CHG=1
M  V30 6 C  33.7519 35.2066 82.8227 0
M  V30 7 C  33.0871 35.9747 81.6574 0
M  V30 8 C  31.6052 36.3647 81.8599 0
M  V30 9 C  30.6474 35.2266 82.2745 0
M  V30 10 N  29.2381 35.5944 82.2009 0
M  V30 11 C  28.6235 36.3587 83.1117 0
M  V30 12 O  29.2220 36.8959 84.0435 0
M  V30 13 N  27.2932 36.4255 82.8936 0
M  V30 14 C  26.3334 36.9808 83.7465 0
M  V30 15 C  24.9778 36.6292 83.8604 0
M  V30 16 C  24.3456 35.5566 83.1109 0
M  V30 17 O  24.9970 34.7569 82.4438 0
M  V30 18 N  23.0123 35.5197 83.1370 0
M  V30 19 C  24.3625 37.4437 84.8511 0
M  V30 20 N  25.1024 38.3770 85.4208 0
M  V30 21 S  26.6677 38.3524 84.7716 0
M  V30 22 O  23.0318 37.3109 85.2168 0
M  V30 23 C  22.5366 38.1436 86.2725 0
M  V30 24 C  21.0548 37.8803 86.4922 0
M  V30 25 C  20.6386 36.7454 87.2004 0
M  V30 26 F  21.5474 35.8476 87.6433 0
M  V30 27 C  19.2840 36.5362 87.4585 0
M  V30 28 C  18.3371 37.4485 86.9935 0
M  V30 29 Br 16.4851 37.1566 87.3067 0
M  V30 30 C  18.7417 38.5721 86.2783 0
M  V30 31 C  20.0947 38.7893 86.0239 0
M  V30 32 F  20.4635 39.8856 85.3254 0
M  V30 33 H  33.2822 33.2131 84.9240 0
M  V30 34 H  34.8887 33.1936 84.1704 0
M  V30 35 H  32.7081 31.0827 83.9522 0
M  V30 36 H  34.4413 30.8346 84.0434 0
M  V30 37 H  34.6364 30.9197 81.7258 0
M  V30 38 H  32.8854 30.9331 81.6436 0
M  V30 39 H  34.8047 33.2334 81.3874 0
M  V30 40 H  33.1495 33.1512 80.7533 0
M  V30 41 H  33.4760 35.6130 83.7985 0
M  V30 42 H  34.8408 35.1949 82.7448 0
M  V30 43 H  33.6573 36.8877 81.4841 0
M  V30 44 H  33.1843 35.4158 80.7265 0
M  V30 45 H  31.5533 37.1621 82.6049 0
M  V30 46 H  31.2496 36.8100 80.9282 0
M  V30 47 H  30.7983 34.3566 81.6421 0
M  V30 48 H  30.8882 34.8719 83.2759 0
M  V30 49 H  28.7145 35.2503 81.4042 0
M  V30 50 H  26.9243 35.8912 82.1191 0
M  V30 51 H  22.5099 36.1451 83.7546 0
M  V30 52 H  22.5168 34.8147 82.6039 0
M  V30 53 H  23.0649 37.9355 87.2061 0
M  V30 54 H  22.6855 39.1988 86.0330 0
M  V30 55 H  18.9707 35.6636 88.0153 0
M  V30 56 H  18.0030 39.2794 85.9307 0
M  V30 57 H  32.3105 33.6999 82.8598 0
M  V30 END ATOM
M  V30 BEGIN BOND
M  V30 1 1 1 2
M  V30 2 1 1 5
M  V30 3 1 1 33
M  V30 4 1 1 34
M  V30 5 1 2 3
M  V30 6 1 2 35
M  V30 7 1 2 36
M  V30 8 1 3 4
M  V30 9 1 3 37
M  V30 10 1 3 38
M  V30 11 1 4 5
M  V30 12 1 4 39
M  V30 13 1 4 40
M  V30 14 1 5 6
M  V30 15 1 5 57
M  V30 16 1 6 7
M  V30 17 1 6 41
M  V30 18 1 6 42
M  V30 19 1 7 8
M  V30 20 1 7 43
M  V30 21 1 7 44
M  V30 22 1 8 9
M  V30 23 1 8 45
M  V30 24 1 8 46
M  V30 25 1 9 10
M  V30 26 1 9 47
M  V30 27 1 9 48
M  V30 28 1 10 11
M  V30 29 1 10 49
M  V30 30 2 11 12
M  V30 31 1 11 13
M  V30 32 1 13 14
M  V30 33 1 13 50
M  V30 34 2 14 15
M  V30 35 1 14 21
M  V30 36 1 15 16
M  V30 37 1 15 19
M  V30 38 2 16 17
M  V30 39 1 16 18
M  V30 40 1 18 51
M  V30 41 1 18 52
M  V30 42 2 19 20
M  V30 43 1 19 22
M  V30 44 1 20 21
M  V30 45 1 22 23
M  V30 46 1 23 24
M  V30 47 1 23 53
M  V30 48 1 23 54
M  V30 49 2 24 25
M  V30 50 1 24 31
M  V30 51 1 25 26
M  V30 52 1 25 27
M  V30 53 2 27 28
M  V30 54 1 27 55
M  V30 55 1 28 29
M  V30 56 1 28 30
M  V30 57 2 30 31
M  V30 58 1 30 56
M  V30 59 1 31 32
M  V30 END BOND
M  V30 END CTAB
M  END
> <s_m_entry_id>
1075

> <s_m_entry_name>
result.135

> <s_m_Source_Path>
D:\OneDrive - zju.edu.cn\DOC\A-Finished\LCK_VS\Planet\LCK-8617

> <s_m_Source_File>
glide-dock_SP_top1262_2_pv.maegz

> <i_m_Source_File_Index>
1075

> <PLANET_affinity>
7.316

> <i_lp_mmshare_version>
54117

> <i_f3d_flags>
0

> <s_epik_input>
W0NIMl0xW0NIMl1bQ0gyXVtDSDJdTjFbQ0gyXVtDSDJdW0NIMl1bQ0gyXVtOSF1DKD1PKVtOSF1jMmMoQyg9TylbTkgyXSljKG5zMilPW0NIMl1jM2MoRilbY0hdYyhCcilbY0hdYzNG

> <s_epik_cmdline>
J2VwaWtfcHl0aG9uJywgJy1waCcsICc3LjAnLCAnLXRuJywgJzgnLCAnLW1hJywgJzUwMCcsICctaW1hZScsICc8aW5maWxlLm1hZT4nLCAnLW9tYWUnLCAnPG91dGZpbGUubWFlPic=

> <r_epik_Ionization_Penalty>
  0.0020

> <r_epik_Ionization_Penalty_Charging>
  0.0004

> <r_epik_Ionization_Penalty_Neutral>
  0.0016

> <r_epik_State_Penalty>
  0.0000

> <r_epik_Charging_Adjusted_Penalty>
0.000368619

> <i_epik_Tot_Q>
1

> <i_epik_Tot_abs_Q>
1

> <s_lp_Force_Field>
S-OPLS

> <r_lp_Energy>
29.2699

> <b_lp_Chiralities_Consistent>
1

> <s_lp_Variant>
O=C(NC1=C(C(N)=O)C(OCC2=C(F)C=C(Br)C=C2F)=NS1)NCCCCN3CCCC3.[H]Cl-1

> <s_i_glide_gridfile>
glide-grid_1

> <i_i_glide_lignum>
2223

> <i_i_glide_rotatable_bonds>
12

> <r_i_docking_score>
-7.49395419511291

> <r_i_glide_ligand_efficiency>
-0.234186068597278

> <r_i_glide_ligand_efficiency_sa>
-0.743494422436315

> <r_i_glide_ligand_efficiency_ln>
-1.67810062176195

> <r_i_glide_gscore>
-7.49395419511291

> <r_i_glide_lipo>
-1.95774786568951

> <r_i_glide_hbond>
-0.779969380574619

> <r_i_glide_metal>
0

> <r_i_glide_rewards>
-1.45966657703091

> <r_i_glide_evdw>
-49.5497817993164

> <r_i_glide_ecoul>
-10.294771194458

> <r_i_glide_erotb>
0.72513439731665

> <r_i_glide_esite>
0

> <r_i_glide_emodel>
-88.7462321681299

> <r_i_glide_energy>
-59.8445529937744

> <r_i_glide_einternal>
5.56431293487549

> <i_i_glide_confnum>
205

> <i_i_glide_posenum>
327

> <r_i_glide_eff_state_penalty>
0

> <r_lp_tautomer_probability>
1

> <s_m_subgroup_title>
glide-dock_SP_top1262_2_pv

> <s_m_subgroupid>
glide-dock_SP_top1262_2_pv

> <b_m_subgroup_collapsed>
0

$$$$
NC1=C2C(N(C3CCCC3)C=C2C4=CC=C(OC5=CC=CC=C5)C=C4)=NC=N1
                    3D
 Schrodinger Suite 2021-3.
  0  0  0     0  0            999 V3000
M  V30 BEGIN CTAB
M  V30 COUNTS 50 54 0 0 0
M  V30 BEGIN ATOM
M  V30 1 N  26.4850 36.3568 82.1530 0
M  V30 2 C  25.3030 36.2199 82.8646 0
M  V30 3 N  24.3702 35.4228 82.3034 0
M  V30 4 C  23.1671 35.3658 82.9170 0
M  V30 5 N  22.7757 36.0093 84.0408 0
M  V30 6 C  23.7381 36.7655 84.5857 0
M  V30 7 C  25.0605 36.9217 84.0676 0
M  V30 8 N  23.6212 37.5662 85.7119 0
M  V30 9 C  22.4131 37.7791 86.5319 0
M  V30 10 C  21.2817 38.4784 85.7421 0
M  V30 11 C  20.1160 37.4842 85.6975 0
M  V30 12 C  20.2833 36.6505 86.9697 0
M  V30 13 C  21.7992 36.4808 87.1096 0
M  V30 14 C  24.8392 38.1875 85.9081 0
M  V30 15 C  25.7741 37.8140 84.9530 0
M  V30 16 C  27.1988 38.2638 84.8780 0
M  V30 17 C  27.5525 39.5743 85.2153 0
M  V30 18 C  28.8774 39.9959 85.1044 0
M  V30 19 C  29.8538 39.1151 84.6419 0
M  V30 20 C  29.5110 37.7999 84.3196 0
M  V30 21 C  28.1914 37.3818 84.4403 0
M  V30 22 O  31.1528 39.5515 84.5421 0
M  V30 23 C  31.7771 39.4412 83.3221 0
M  V30 24 C  31.5677 40.4172 82.3468 0
M  V30 25 C  32.1964 40.3132 81.1093 0
M  V30 26 C  33.0194 39.2164 80.8465 0
M  V30 27 C  33.2316 38.2379 81.8179 0
M  V30 28 C  32.6187 38.3560 83.0643 0
M  V30 29 H  27.1990 36.9706 82.5196 0
M  V30 30 H  26.6273 35.8540 81.2873 0
M  V30 31 H  22.4179 34.7571 82.4444 0
M  V30 32 H  22.7245 38.4486 87.3361 0
M  V30 33 H  20.9746 39.3815 86.2728 0
M  V30 34 H  21.5799 38.8005 84.7425 0
M  V30 35 H  19.1474 37.9802 85.6510 0
M  V30 36 H  20.1998 36.8458 84.8177 0
M  V30 37 H  19.8848 37.1933 87.8282 0
M  V30 38 H  19.7623 35.6919 86.9142 0
M  V30 39 H  22.1043 35.5944 86.5524 0
M  V30 40 H  22.0833 36.3198 88.1484 0
M  V30 41 H  24.9582 38.8634 86.7420 0
M  V30 42 H  26.8021 40.2737 85.5536 0
M  V30 43 H  29.1505 41.0080 85.3653 0
M  V30 44 H  30.2641 37.1037 83.9819 0
M  V30 45 H  27.9504 36.3575 84.2093 0
M  V30 46 H  30.9241 41.2588 82.5575 0
M  V30 47 H  32.0362 41.0644 80.3488 0
M  V30 48 H  33.4902 39.1259 79.8788 0
M  V30 49 H  33.8678 37.3917 81.6042 0
M  V30 50 H  32.7805 37.6066 83.8249 0
M  V30 END ATOM
M  V30 BEGIN BOND
M  V30 1 1 1 2
M  V30 2 1 1 29
M  V30 3 1 1 30
M  V30 4 2 2 3
M  V30 5 1 2 7
M  V30 6 1 3 4
M  V30 7 2 4 5
M  V30 8 1 4 31
M  V30 9 1 5 6
M  V30 10 2 6 7
M  V30 11 1 6 8
M  V30 12 1 7 15
M  V30 13 1 8 9
M  V30 14 1 8 14
M  V30 15 1 9 10
M  V30 16 1 9 13
M  V30 17 1 9 32
M  V30 18 1 10 11
M  V30 19 1 10 33
M  V30 20 1 10 34
M  V30 21 1 11 12
M  V30 22 1 11 35
M  V30 23 1 11 36
M  V30 24 1 12 13
M  V30 25 1 12 37
M  V30 26 1 12 38
M  V30 27 1 13 39
M  V30 28 1 13 40
M  V30 29 2 14 15
M  V30 30 1 14 41
M  V30 31 1 15 16
M  V30 32 2 16 17
M  V30 33 1 16 21
M  V30 34 1 17 18
M  V30 35 1 17 42
M  V30 36 2 18 19
M  V30 37 1 18 43
M  V30 38 1 19 20
M  V30 39 1 19 22
M  V30 40 2 20 21
M  V30 41 1 20 44
M  V30 42 1 21 45
M  V30 43 1 22 23
M  V30 44 2 23 24
M  V30 45 1 23 28
M  V30 46 1 24 25
M  V30 47 1 24 46
M  V30 48 2 25 26
M  V30 49 1 25 47
M  V30 50 1 26 27
M  V30 51 1 26 48
M  V30 52 2 27 28
M  V30 53 1 27 49
M  V30 54 1 28 50
M  V30 END BOND
M  V30 END CTAB
M  END
> <s_m_entry_id>
1077

> <s_m_entry_name>
result.3549

> <s_m_Source_Path>
D:\OneDrive - zju.edu.cn\DOC\A-Finished\LCK_VS\Planet\LCK-8617

> <s_m_Source_File>
glide-dock_SP_top1262_2_pv.maegz

> <i_m_Source_File_Index>
1077

> <PLANET_affinity>
7.108

> <i_lp_mmshare_version>
54117

> <i_f3d_flags>
0

> <s_epik_input>
W0NIMl0xW0NIMl1bQ0gyXVtDSDJdW0NIXTFuMltjSF1jKGMoYzIzKWMoW05IMl0pbltjSF1uMyktYzRbY0hdW2NIXWMoW2NIXVtjSF00KU9jNVtjSF1bY0hdW2NIXVtjSF1bY0hdNQ==

> <s_epik_cmdline>
J2VwaWtfcHl0aG9uJywgJy1waCcsICc3LjAnLCAnLXRuJywgJzgnLCAnLW1hJywgJzUwMCcsICctaW1hZScsICc8aW5maWxlLm1hZT4nLCAnLW9tYWUnLCAnPG91dGZpbGUubWFlPic=

> <r_epik_Ionization_Penalty>
  0.0037

> <r_epik_Ionization_Penalty_Charging>
  0.0000

> <r_epik_Ionization_Penalty_Neutral>
  0.0037

> <r_epik_State_Penalty>
  0.0025

> <r_epik_Charging_Adjusted_Penalty>
0.00251127

> <i_epik_Tot_Q>
0

> <i_epik_Tot_abs_Q>
0

> <s_lp_Force_Field>
S-OPLS

> <r_lp_Energy>
50.9376

> <b_lp_Chiralities_Consistent>
1

> <s_lp_Variant>
NC1=C2C(N(C3CCCC3)C=C2C4=CC=C(OC5=CC=CC=C5)C=C4)=NC=N1-1

> <s_i_glide_gridfile>
glide-grid_1

> <i_i_glide_lignum>
2519

> <i_i_glide_rotatable_bonds>
4

> <r_i_docking_score>
-7.49141713073577

> <r_i_glide_ligand_efficiency>
-0.267550611811992

> <r_i_glide_ligand_efficiency_sa>
-0.812441236344474

> <r_i_glide_ligand_efficiency_ln>
-1.72923903133853

> <r_i_glide_gscore>
-7.49391713073577

> <r_i_glide_lipo>
-2.55584125294792

> <r_i_glide_hbond>
-0.401819060919325

> <r_i_glide_metal>
0

> <r_i_glide_rewards>
-2.37238719118015

> <r_i_glide_evdw>
-36.7314834594727

> <r_i_glide_ecoul>
-4.80616474151611

> <r_i_glide_erotb>
0.393629258512677

> <r_i_glide_esite>
0

> <r_i_glide_emodel>
-60.1264147505531

> <r_i_glide_energy>
-41.5376482009888

> <r_i_glide_einternal>
2.89304304122925

> <i_i_glide_confnum>
65

> <i_i_glide_posenum>
310

> <r_i_glide_eff_state_penalty>
0.0025

> <r_lp_tautomer_probability>
1

> <s_m_subgroup_title>
glide-dock_SP_top1262_2_pv

> <s_m_subgroupid>
glide-dock_SP_top1262_2_pv

> <b_m_subgroup_collapsed>
0

$$$$
OC1=CC(C)=C2C(C3=C(SC=C3)C(N2)=O)=C1C4=CC=C([C@@H](C)CN(C)C)C=C4.Cl
                    3D
 Schrodinger Suite 2021-3.
  0  0  0     0  0            999 V3000
M  V30 BEGIN CTAB
M  V30 COUNTS 53 56 0 0 0
M  V30 BEGIN ATOM
M  V30 1 C  24.8157 38.4113 85.2080 0
M  V30 2 C  23.5468 37.8546 85.2468 0
M  V30 3 S  23.4670 36.3569 84.3954 0
M  V30 4 C  25.1397 36.5062 83.9383 0
M  V30 5 C  25.7734 35.5746 83.0306 0
M  V30 6 O  25.2832 34.6198 82.4435 0
M  V30 7 N  27.0710 35.9001 82.8452 0
M  V30 8 C  25.7627 37.6205 84.5254 0
M  V30 9 C  27.2539 37.8323 84.3442 0
M  V30 10 C  27.8531 36.8894 83.4755 0
M  V30 11 C  28.0637 38.8156 84.9630 0
M  V30 12 C  29.4475 38.8111 84.7160 0
M  V30 13 O  30.2812 39.7294 85.3025 0
M  V30 14 C  30.0200 37.8685 83.8701 0
M  V30 15 C  29.2357 36.9056 83.2427 0
M  V30 16 C  29.9056 35.8967 82.3140 0
M  V30 17 C  27.4930 39.8728 85.8381 0
M  V30 18 C  27.1121 39.5953 87.1535 0
M  V30 19 C  26.4884 40.5780 87.9210 0
M  V30 20 C  26.2680 41.8586 87.3975 0
M  V30 21 C  26.7208 42.1488 86.1038 0
M  V30 22 C  27.3179 41.1609 85.3296 0
M  V30 23 C  25.5415 42.9048 88.2637 0 CFG=1
M  V30 24 C  26.4527 43.3781 89.4124 0
M  V30 25 C  24.9509 44.1338 87.5096 0
M  V30 26 N  23.9705 43.7158 86.3821 0 CHG=1
M  V30 27 C  22.5400 43.4186 86.8920 0
M  V30 28 C  23.9272 44.7568 85.2435 0
M  V30 29 H  25.0163 39.3561 85.6824 0
M  V30 30 H  22.6645 38.2548 85.7238 0
M  V30 31 H  27.5350 35.2828 82.1940 0
M  V30 32 H  29.8257 40.3177 85.9090 0
M  V30 33 H  31.0869 37.8939 83.7001 0
M  V30 34 H  29.7511 34.8796 82.6793 0
M  V30 35 H  29.4728 35.9550 81.3135 0
M  V30 36 H  30.9803 36.0644 82.2216 0
M  V30 37 H  27.2603 38.6072 87.5645 0
M  V30 38 H  26.1668 40.3377 88.9239 0
M  V30 39 H  26.6087 43.1313 85.6716 0
M  V30 40 H  27.6319 41.3945 84.3222 0
M  V30 41 H  24.6981 42.3884 88.7269 0
M  V30 42 H  26.8092 42.5416 90.0144 0
M  V30 43 H  27.3290 43.9047 89.0327 0
M  V30 44 H  25.9259 44.0558 90.0863 0
M  V30 45 H  25.7494 44.7138 87.0413 0
M  V30 46 H  24.3903 44.8085 88.1598 0
M  V30 47 H  22.1185 44.3418 87.2973 0
M  V30 48 H  22.6081 42.6423 87.6551 0
M  V30 49 H  21.9481 43.0727 86.0427 0
M  V30 50 H  23.5203 45.6879 85.6451 0
M  V30 51 H  24.9408 44.8903 84.8588 0
M  V30 52 H  23.2840 44.3548 84.4596 0
M  V30 53 H  24.3407 42.8614 85.9824 0
M  V30 END ATOM
M  V30 BEGIN BOND
M  V30 1 2 1 2
M  V30 2 1 1 8
M  V30 3 1 1 29
M  V30 4 1 2 3
M  V30 5 1 2 30
M  V30 6 1 3 4
M  V30 7 1 4 5
M  V30 8 2 4 8
M  V30 9 2 5 6
M  V30 10 1 5 7
M  V30 11 1 7 10
M  V30 12 1 7 31
M  V30 13 1 8 9
M  V30 14 2 9 10
M  V30 15 1 9 11
M  V30 16 1 10 15
M  V30 17 2 11 12
M  V30 18 1 11 17
M  V30 19 1 12 13
M  V30 20 1 12 14
M  V30 21 1 13 32
M  V30 22 2 14 15
M  V30 23 1 14 33
M  V30 24 1 15 16
M  V30 25 1 16 34
M  V30 26 1 16 35
M  V30 27 1 16 36
M  V30 28 2 17 18
M  V30 29 1 17 22
M  V30 30 1 18 19
M  V30 31 1 18 37
M  V30 32 2 19 20
M  V30 33 1 19 38
M  V30 34 1 20 21
M  V30 35 1 20 23
M  V30 36 2 21 22
M  V30 37 1 21 39
M  V30 38 1 22 40
M  V30 39 1 23 24
M  V30 40 1 23 25
M  V30 41 1 23 41
M  V30 42 1 24 42
M  V30 43 1 24 43
M  V30 44 1 24 44
M  V30 45 1 25 26
M  V30 46 1 25 45
M  V30 47 1 25 46
M  V30 48 1 26 27
M  V30 49 1 26 28
M  V30 50 1 26 53
M  V30 51 1 27 47
M  V30 52 1 27 48
M  V30 53 1 27 49
M  V30 54 1 28 50
M  V30 55 1 28 51
M  V30 56 1 28 52
M  V30 END BOND
M  V30 END CTAB
M  END
> <s_m_entry_id>
1079

> <s_m_entry_name>
result.6677

> <s_m_Source_Path>
D:\OneDrive - zju.edu.cn\DOC\A-Finished\LCK_VS\Planet\LCK-8617

> <s_m_Source_File>
glide-dock_SP_top1262_2_pv.maegz

> <i_m_Source_File_Index>
1079

> <PLANET_affinity>
8.008

> <i_lp_mmshare_version>
54117

> <i_f3d_flags>
0

> <s_epik_input>
czFbY0hdW2NIXWMoYzEyKWMzYyhbbkhdYzI9TyljKFtDSDNdKVtjSF1jKFtPSF0pYzMtYzRbY0hdW2NIXWMoW2NIXVtjSF00KVtDQEBIXShbQ0gzXSlbQ0gyXU4oW0NIM10pW0NIM10=

> <s_epik_cmdline>
J2VwaWtfcHl0aG9uJywgJy1waCcsICc3LjAnLCAnLXRuJywgJzgnLCAnLW1hJywgJzUwMCcsICctaW1hZScsICc8aW5maWxlLm1hZT4nLCAnLW9tYWUnLCAnPG91dGZpbGUubWFlPic=

> <r_epik_Ionization_Penalty>
  0.0069

> <r_epik_Ionization_Penalty_Charging>
  0.0045

> <r_epik_Ionization_Penalty_Neutral>
  0.0024

> <r_epik_State_Penalty>
  0.0000

> <r_epik_Charging_Adjusted_Penalty>
0.00445634

> <i_epik_Tot_Q>
1

> <i_epik_Tot_abs_Q>
1

> <s_lp_Force_Field>
S-OPLS

> <r_lp_Energy>
54.2705

> <b_lp_Chiralities_Consistent>
1

> <s_lp_Variant>
OC1=CC(C)=C2C(C3=C(SC=C3)C(N2)=O)=C1C4=CC=C([C@@H](C)CN(C)C)C=C4.Cl-1

> <s_i_glide_gridfile>
glide-grid_1

> <i_i_glide_lignum>
1291

> <i_i_glide_rotatable_bonds>
5

> <r_i_docking_score>
-7.48948830084031

> <r_i_glide_ligand_efficiency>
-0.267481725030011

> <r_i_glide_ligand_efficiency_sa>
-0.812232055502235

> <r_i_glide_ligand_efficiency_ln>
-1.72879380076575

> <r_i_glide_gscore>
-7.48948830084031

> <r_i_glide_lipo>
-2.48519182933765

> <r_i_glide_hbond>
-0.33843914755619

> <r_i_glide_metal>
0

> <r_i_glide_rewards>
-1.69392096601503

> <r_i_glide_evdw>
-32.9899291992188

> <r_i_glide_ecoul>
-10.4294624328613

> <r_i_glide_erotb>
0.264916042253045

> <r_i_glide_esite>
-0.0229365752943511

> <r_i_glide_emodel>
-66.2414577297387

> <r_i_glide_energy>
-43.4193916320801

> <r_i_glide_einternal>
2.5296196937561

> <i_i_glide_confnum>
19

> <i_i_glide_posenum>
67

> <r_i_glide_eff_state_penalty>
0

> <r_lp_tautomer_probability>
1

> <s_m_subgroup_title>
glide-dock_SP_top1262_2_pv

> <s_m_subgroupid>
glide-dock_SP_top1262_2_pv

> <b_m_subgroup_collapsed>
0

$$$$
O=C(C1=NNC=C1NC2=NC=NC3=C2C=CN3)NC4=CC=C(CN5CCN(C)CC5)C=C4
                    3D
 Schrodinger Suite 2021-3.
  0  0  0     0  0            999 V3000
M  V30 BEGIN CTAB
M  V30 COUNTS 58 62 0 0 0
M  V30 BEGIN ATOM
M  V30 1 N  19.2564 36.2339 87.8730 0
M  V30 2 C  20.0832 35.1576 87.6436 0
M  V30 3 C  21.1426 35.5573 86.8491 0
M  V30 4 C  20.9720 36.9615 86.6035 0
M  V30 5 C  19.7802 37.3551 87.2702 0
M  V30 6 C  21.6563 37.9977 85.9323 0
M  V30 7 N  21.2152 39.2794 86.0014 0
M  V30 8 C  20.0556 39.5042 86.6701 0
M  V30 9 N  19.2828 38.5947 87.3180 0
M  V30 10 N  22.8434 37.7918 85.2231 0
M  V30 11 C  23.1068 36.7566 84.3529 0
M  V30 12 C  22.1790 35.9659 83.6965 0
M  V30 13 N  22.8828 35.1567 82.8576 0
M  V30 14 N  24.1951 35.3524 82.9398 0
M  V30 15 C  24.3606 36.3292 83.8254 0
M  V30 16 C  25.6580 36.8599 84.2105 0
M  V30 17 O  25.7838 37.5742 85.2067 0
M  V30 18 N  26.6699 36.4947 83.3907 0
M  V30 19 C  28.0439 36.7564 83.5044 0
M  V30 20 C  28.8796 35.9404 82.7381 0
M  V30 21 C  30.2580 36.0879 82.8129 0
M  V30 22 C  30.8104 37.0686 83.6378 0
M  V30 23 C  29.9784 37.8903 84.4015 0
M  V30 24 C  28.5990 37.7441 84.3313 0
M  V30 25 C  32.3242 37.2543 83.6946 0
M  V30 26 N  32.8705 38.1865 82.6943 0 CFG=1
M  V30 27 C  32.6725 37.7033 81.3171 0
M  V30 28 C  33.4371 38.5988 80.3228 0
M  V30 29 N  32.8865 40.0406 80.4428 0 CHG=1
M  V30 30 C  33.6124 40.9649 79.4455 0
M  V30 31 C  33.0578 40.5366 81.8995 0
M  V30 32 C  32.3338 39.5502 82.8406 0
M  V30 33 H  18.4080 36.1732 88.4147 0
M  V30 34 H  19.8375 34.1845 88.0448 0
M  V30 35 H  21.9388 34.9151 86.5059 0
M  V30 36 H  19.7049 40.5276 86.6888 0
M  V30 37 H  23.4571 38.5936 85.2374 0
M  V30 38 H  21.1027 35.9527 83.7232 0
M  V30 39 H  22.4722 34.4532 82.2484 0
M  V30 40 H  26.4135 35.8883 82.6277 0
M  V30 41 H  28.4709 35.1737 82.0938 0
M  V30 42 H  30.8929 35.4429 82.2208 0
M  V30 43 H  30.4002 38.6492 85.0437 0
M  V30 44 H  27.9877 38.4040 84.9275 0
M  V30 45 H  32.6099 37.5958 84.6908 0
M  V30 46 H  32.8096 36.2824 83.5837 0
M  V30 47 H  33.0374 36.6794 81.2286 0
M  V30 48 H  31.6129 37.6801 81.0539 0
M  V30 49 H  33.2732 38.2826 79.2888 0
M  V30 50 H  34.5116 38.6246 80.5293 0
M  V30 51 H  34.6805 40.9616 79.6740 0
M  V30 52 H  33.4127 40.5757 78.4454 0
M  V30 53 H  33.1803 41.9566 79.5657 0
M  V30 54 H  32.6149 41.5342 81.9566 0
M  V30 55 H  34.1269 40.6010 82.1157 0
M  V30 56 H  31.2611 39.5718 82.6386 0
M  V30 57 H  32.4597 39.8823 83.8733 0
M  V30 58 H  31.8995 40.0118 80.2123 0
M  V30 END ATOM
M  V30 BEGIN BOND
M  V30 1 1 1 2
M  V30 2 1 1 5
M  V30 3 1 1 33
M  V30 4 2 2 3
M  V30 5 1 2 34
M  V30 6 1 3 4
M  V30 7 1 3 35
M  V30 8 2 4 5
M  V30 9 1 4 6
M  V30 10 1 5 9
M  V30 11 2 6 7
M  V30 12 1 6 10
M  V30 13 1 7 8
M  V30 14 2 8 9
M  V30 15 1 8 36
M  V30 16 1 10 11
M  V30 17 1 10 37
M  V30 18 2 11 12
M  V30 19 1 11 15
M  V30 20 1 12 13
M  V30 21 1 12 38
M  V30 22 1 13 14
M  V30 23 1 13 39
M  V30 24 2 14 15
M  V30 25 1 15 16
M  V30 26 2 16 17
M  V30 27 1 16 18
M  V30 28 1 18 19
M  V30 29 1 18 40
M  V30 30 2 19 20
M  V30 31 1 19 24
M  V30 32 1 20 21
M  V30 33 1 20 41
M  V30 34 2 21 22
M  V30 35 1 21 42
M  V30 36 1 22 23
M  V30 37 1 22 25
M  V30 38 2 23 24
M  V30 39 1 23 43
M  V30 40 1 24 44
M  V30 41 1 25 26
M  V30 42 1 25 45
M  V30 43 1 25 46
M  V30 44 1 26 27
M  V30 45 1 26 32
M  V30 46 1 27 28
M  V30 47 1 27 47
M  V30 48 1 27 48
M  V30 49 1 28 29
M  V30 50 1 28 49
M  V30 51 1 28 50
M  V30 52 1 29 30
M  V30 53 1 29 31
M  V30 54 1 29 58
M  V30 55 1 30 51
M  V30 56 1 30 52
M  V30 57 1 30 53
M  V30 58 1 31 32
M  V30 59 1 31 54
M  V30 60 1 31 55
M  V30 61 1 32 56
M  V30 62 1 32 57
M  V30 END BOND
M  V30 END CTAB
M  END
> <s_m_entry_id>
1080

> <s_m_entry_name>
result.4570

> <s_m_Source_Path>
D:\OneDrive - zju.edu.cn\DOC\A-Finished\LCK_VS\Planet\LCK-8617

> <s_m_Source_File>
glide-dock_SP_top1262_2_pv.maegz

> <i_m_Source_File_Index>
1080

> <PLANET_affinity>
8.605

> <i_lp_mmshare_version>
54117

> <i_f3d_flags>
0

> <s_epik_input>
W2NIXTFbY0hdW25IXWMoYzEyKW5bY0hdbmMyW05IXWMzW2NIXVtuSF1uYzNDKD1PKVtOSF1jNFtjSF1bY0hdYyhbY0hdW2NIXTQpW0NIMl1ONVtDSDJdW0NIMl1OKFtDSDNdKVtDSDJdW0NIMl01

> <s_epik_cmdline>
J2VwaWtfcHl0aG9uJywgJy1waCcsICc3LjAnLCAnLXRuJywgJzgnLCAnLW1hJywgJzUwMCcsICctaW1hZScsICc8aW5maWxlLm1hZT4nLCAnLW9tYWUnLCAnPG91dGZpbGUubWFlPic=

> <r_epik_Ionization_Penalty>
  0.0926

> <r_epik_Ionization_Penalty_Charging>
  0.0361

> <r_epik_Ionization_Penalty_Neutral>
  0.0565

> <r_epik_State_Penalty>
  0.7547

> <r_epik_Charging_Adjusted_Penalty>
0.790819

> <i_epik_Tot_Q>
1

> <i_epik_Tot_abs_Q>
1

> <s_lp_Force_Field>
S-OPLS

> <r_lp_Energy>
67.695

> <b_lp_Chiralities_Consistent>
1

> <s_lp_Variant>
O=C(C1=NNC=C1NC2=NC=NC3=C2C=CN3)NC4=CC=C(CN5CCN(C)CC5)C=C4-2

> <s_i_glide_gridfile>
glide-grid_1

> <i_i_glide_lignum>
742

> <i_i_glide_rotatable_bonds>
7

> <r_i_docking_score>
-7.48816270393967

> <r_i_glide_ligand_efficiency>
-0.234005084498115

> <r_i_glide_ligand_efficiency_sa>
-0.742919833738174

> <r_i_glide_ligand_efficiency_ln>
-1.67680374901818

> <r_i_glide_gscore>
-8.24286270393967

> <r_i_glide_lipo>
-3.11374659016509

> <r_i_glide_hbond>
-0.32

> <r_i_glide_metal>
0

> <r_i_glide_rewards>
-1.93996079166287

> <r_i_glide_evdw>
-47.5145301818848

> <r_i_glide_ecoul>
-8.25389766693115

> <r_i_glide_erotb>
0.744655837022202

> <r_i_glide_esite>
0

> <r_i_glide_emodel>
-81.2467724177295

> <r_i_glide_energy>
-55.7684278488159

> <r_i_glide_einternal>
12.1572246551514

> <i_i_glide_confnum>
74

> <i_i_glide_posenum>
329

> <r_i_glide_eff_state_penalty>
0.7547

> <s_m_subgroup_title>
glide-dock_SP_top1262_2_pv

> <s_m_subgroupid>
glide-dock_SP_top1262_2_pv

> <b_m_subgroup_collapsed>
0

$$$$
O=C(NC1=CC=CC=C1N)C2=C3C=CC(OC4=CC=NC5=CC(OC)=CC=C54)=CC3=CC=C2
                    3D
 Schrodinger Suite 2021-3.
  0  0  0     0  0            999 V3000
M  V30 BEGIN CTAB
M  V30 COUNTS 55 59 0 0 0
M  V30 BEGIN ATOM
M  V30 1 N  20.7565 35.0781 87.4372 0
M  V30 2 C  19.9571 36.1999 87.1933 0
M  V30 3 C  18.8245 36.3867 87.9878 0
M  V30 4 C  17.9790 37.4727 87.7616 0
M  V30 5 C  18.2677 38.3803 86.7460 0
M  V30 6 C  19.3858 38.2005 85.9383 0
M  V30 7 C  20.2361 37.1165 86.1563 0
M  V30 8 N  21.3058 36.9624 85.2659 0
M  V30 9 C  22.6065 37.1139 85.5815 0
M  V30 10 O  22.9767 37.5570 86.6690 0
M  V30 11 C  23.5854 36.6636 84.5133 0
M  V30 12 C  23.2005 35.6260 83.6442 0
M  V30 13 C  24.0353 35.1481 82.6521 0
M  V30 14 C  25.3104 35.6544 82.5027 0
M  V30 15 C  25.7593 36.6995 83.3337 0
M  V30 16 C  24.9063 37.2342 84.3537 0
M  V30 17 C  27.0422 37.2448 83.1227 0
M  V30 18 C  27.4851 38.3539 83.8354 0
M  V30 19 C  26.6797 38.8783 84.8420 0
M  V30 20 C  25.4248 38.3320 85.1147 0
M  V30 21 O  28.6556 38.9704 83.4559 0
M  V30 22 C  29.7913 38.7571 84.1952 0
M  V30 23 C  30.0646 39.5824 85.2871 0
M  V30 24 C  31.2156 39.3906 86.0433 0
M  V30 25 N  32.0621 38.3966 85.7222 0 CHG=1
M  V30 26 C  30.7254 37.7349 83.8427 0
M  V30 27 C  31.8859 37.5488 84.6540 0
M  V30 28 C  30.5636 36.8776 82.7258 0
M  V30 29 C  31.4797 35.8593 82.4801 0
M  V30 30 C  32.5789 35.6436 83.3066 0
M  V30 31 C  32.8074 36.5042 84.3905 0
M  V30 32 O  33.3779 34.5668 82.9839 0
M  V30 33 C  34.2579 34.0455 83.9727 0
M  V30 34 H  21.1356 34.6234 86.6164 0
M  V30 35 H  20.4347 34.4657 88.1728 0
M  V30 36 H  18.5871 35.6910 88.7811 0
M  V30 37 H  17.1044 37.6197 88.3793 0
M  V30 38 H  17.6346 39.2378 86.5807 0
M  V30 39 H  19.5928 38.9153 85.1545 0
M  V30 40 H  21.0768 36.7499 84.3080 0
M  V30 41 H  22.2342 35.1469 83.7271 0
M  V30 42 H  23.6830 34.3574 82.0082 0
M  V30 43 H  25.9660 35.2734 81.7334 0
M  V30 44 H  27.6488 36.8172 82.3409 0
M  V30 45 H  27.0136 39.7458 85.3934 0
M  V30 46 H  24.8315 38.8024 85.8840 0
M  V30 47 H  29.3778 40.3767 85.5426 0
M  V30 48 H  31.4753 39.9792 86.9114 0
M  V30 49 H  29.7282 37.0111 82.0568 0
M  V30 50 H  31.3196 35.1958 81.6433 0
M  V30 51 H  33.6576 36.3794 85.0410 0
M  V30 52 H  34.7725 33.1668 83.5861 0
M  V30 53 H  35.0236 34.7631 84.2756 0
M  V30 54 H  33.6848 33.7286 84.8437 0
M  V30 55 H  32.8764 38.2605 86.3037 0
M  V30 END ATOM
M  V30 BEGIN BOND
M  V30 1 1 1 2
M  V30 2 1 1 34
M  V30 3 1 1 35
M  V30 4 2 2 3
M  V30 5 1 2 7
M  V30 6 1 3 4
M  V30 7 1 3 36
M  V30 8 2 4 5
M  V30 9 1 4 37
M  V30 10 1 5 6
M  V30 11 1 5 38
M  V30 12 2 6 7
M  V30 13 1 6 39
M  V30 14 1 7 8
M  V30 15 1 8 9
M  V30 16 1 8 40
M  V30 17 2 9 10
M  V30 18 1 9 11
M  V30 19 2 11 12
M  V30 20 1 11 16
M  V30 21 1 12 13
M  V30 22 1 12 41
M  V30 23 2 13 14
M  V30 24 1 13 42
M  V30 25 1 14 15
M  V30 26 1 14 43
M  V30 27 2 15 16
M  V30 28 1 15 17
M  V30 29 1 16 20
M  V30 30 2 17 18
M  V30 31 1 17 44
M  V30 32 1 18 19
M  V30 33 1 18 21
M  V30 34 2 19 20
M  V30 35 1 19 45
M  V30 36 1 20 46
M  V30 37 1 21 22
M  V30 38 2 22 23
M  V30 39 1 22 26
M  V30 40 1 23 24
M  V30 41 1 23 47
M  V30 42 2 24 25
M  V30 43 1 24 48
M  V30 44 1 25 27
M  V30 45 1 25 55
M  V30 46 2 26 27
M  V30 47 1 26 28
M  V30 48 1 27 31
M  V30 49 2 28 29
M  V30 50 1 28 49
M  V30 51 1 29 30
M  V30 52 1 29 50
M  V30 53 2 30 31
M  V30 54 1 30 32
M  V30 55 1 31 51
M  V30 56 1 32 33
M  V30 57 1 33 52
M  V30 58 1 33 53
M  V30 59 1 33 54
M  V30 END BOND
M  V30 END CTAB
M  END
> <s_m_entry_id>
1081

> <s_m_entry_name>
result.4472

> <s_m_Source_Path>
D:\OneDrive - zju.edu.cn\DOC\A-Finished\LCK_VS\Planet\LCK-8617

> <s_m_Source_File>
glide-dock_SP_top1262_2_pv.maegz

> <i_m_Source_File_Index>
1081

> <PLANET_affinity>
7.211

> <i_lp_mmshare_version>
54117

> <i_f3d_flags>
0

> <s_epik_input>
W05IMl1jMVtjSF1bY0hdW2NIXVtjSF1jMVtOSF1DKD1PKWMoW2NIXVtjSF1bY0hdMiljKGMyMylbY0hdW2NIXWMoW2NIXTMpT2M0W2NIXVtjSF1uYyhjNDUpW2NIXWMoW2NIXVtjSF01KU9bQ0gzXQ==

> <s_epik_cmdline>
J2VwaWtfcHl0aG9uJywgJy1waCcsICc3LjAnLCAnLXRuJywgJzgnLCAnLW1hJywgJzUwMCcsICctaW1hZScsICc8aW5maWxlLm1hZT4nLCAnLW9tYWUnLCAnPG91dGZpbGUubWFlPic=

> <r_epik_Ionization_Penalty>
  0.0349

> <r_epik_Ionization_Penalty_Charging>
  0.0346

> <r_epik_Ionization_Penalty_Neutral>
  0.0004

> <r_epik_State_Penalty>
  0.0288

> <r_epik_Charging_Adjusted_Penalty>
0.0633369

> <i_epik_Tot_Q>
1

> <i_epik_Tot_abs_Q>
1

> <s_lp_Force_Field>
S-OPLS

> <r_lp_Energy>
71.8246

> <b_lp_Chiralities_Consistent>
1

> <s_lp_Variant>
O=C(NC1=CC=CC=C1N)C2=C3C=CC(OC4=CC=NC5=CC(OC)=CC=C54)=CC3=CC=C2-1

> <s_i_glide_gridfile>
glide-grid_1

> <i_i_glide_lignum>
2371

> <i_i_glide_rotatable_bonds>
6

> <r_i_docking_score>
-7.48750026289962

> <r_i_glide_ligand_efficiency>
-0.226893947360595

> <r_i_glide_ligand_efficiency_sa>
-0.727770124579155

> <r_i_glide_ligand_efficiency_ln>
-1.66518129026734

> <r_i_glide_gscore>
-7.51630026289962

> <r_i_glide_lipo>
-3.87797662031876

> <r_i_glide_hbond>
0

> <r_i_glide_metal>
0

> <r_i_glide_rewards>
-0.872175969131163

> <r_i_glide_evdw>
-45.1042518615723

> <r_i_glide_ecoul>
-6.89380884170532

> <r_i_glide_erotb>
0.523136245884711

> <r_i_glide_esite>
0

> <r_i_glide_emodel>
-75.4029042426177

> <r_i_glide_energy>
-51.9980607032776

> <r_i_glide_einternal>
8.94333839416504

> <i_i_glide_confnum>
57

> <i_i_glide_posenum>
164

> <r_i_glide_eff_state_penalty>
0.0288

> <s_m_subgroup_title>
glide-dock_SP_top1262_2_pv

> <s_m_subgroupid>
glide-dock_SP_top1262_2_pv

> <b_m_subgroup_collapsed>
0

$$$$
O=C1NC2=C(C(C3=CC=C([C@@H](C)CN)C=C3)=C(O)C=C2C)C4=C1SC=C4
                    3D
 Schrodinger Suite 2021-3.
  0  0  0     0  0            999 V3000
M  V30 BEGIN CTAB
M  V30 COUNTS 47 50 0 0 0
M  V30 BEGIN ATOM
M  V30 1 C  24.6842 38.4210 85.3554 0
M  V30 2 C  23.4502 37.7880 85.4089 0
M  V30 3 S  23.4055 36.3569 84.4438 0
M  V30 4 C  25.0586 36.6053 83.9679 0
M  V30 5 C  25.7395 35.7061 83.0663 0
M  V30 6 O  25.2836 34.7557 82.4438 0
M  V30 7 N  27.0485 36.0282 82.9774 0
M  V30 8 C  25.6111 37.7746 84.5146 0
M  V30 9 C  27.0485 38.1408 84.2168 0
M  V30 10 C  27.7432 37.1427 83.4977 0
M  V30 11 C  27.7207 39.3321 84.5744 0
M  V30 12 C  29.0995 39.4356 84.3154 0
M  V30 13 O  29.8050 40.5661 84.6388 0
M  V30 14 C  29.7878 38.4064 83.6812 0
M  V30 15 C  29.1168 37.2662 83.2435 0
M  V30 16 C  29.8933 36.1937 82.4853 0
M  V30 17 C  26.9940 40.5028 85.1311 0
M  V30 18 C  27.1174 40.8728 86.4754 0
M  V30 19 C  26.4069 41.9695 86.9655 0
M  V30 20 C  25.5747 42.7117 86.1176 0
M  V30 21 C  25.4736 42.3524 84.7691 0
M  V30 22 C  26.1786 41.2585 84.2858 0
M  V30 23 C  24.7982 43.9151 86.6663 0 CFG=1
M  V30 24 C  25.5976 45.2177 86.4321 0
M  V30 25 C  23.3444 43.9753 86.1090 0
M  V30 26 N  22.4830 45.0140 86.8444 0 CHG=1
M  V30 27 H  24.8853 39.3142 85.9228 0
M  V30 28 H  22.5814 38.0884 85.9766 0
M  V30 29 H  27.5672 35.3880 82.3948 0
M  V30 30 H  29.2601 41.2731 84.9949 0
M  V30 31 H  30.8462 38.5210 83.4932 0
M  V30 32 H  29.8424 35.2442 83.0189 0
M  V30 33 H  29.4647 36.0367 81.4937 0
M  V30 34 H  30.9451 36.4534 82.3535 0
M  V30 35 H  27.7547 40.3044 87.1411 0
M  V30 36 H  26.5112 42.2401 88.0073 0
M  V30 37 H  24.8591 42.9202 84.0855 0
M  V30 38 H  26.0942 40.9913 83.2429 0
M  V30 39 H  24.7250 43.7544 87.7457 0
M  V30 40 H  26.6207 45.1299 86.8042 0
M  V30 41 H  25.6627 45.4617 85.3695 0
M  V30 42 H  25.1539 46.0746 86.9431 0
M  V30 43 H  22.8000 43.0372 86.2468 0
M  V30 44 H  23.2855 44.2807 85.0616 0
M  V30 45 H  21.5275 45.0008 86.4827 0
M  V30 46 H  22.8457 45.9456 86.7042 0
M  V30 47 H  22.4290 44.8166 87.8329 0
M  V30 END ATOM
M  V30 BEGIN BOND
M  V30 1 2 1 2
M  V30 2 1 1 8
M  V30 3 1 1 27
M  V30 4 1 2 3
M  V30 5 1 2 28
M  V30 6 1 3 4
M  V30 7 1 4 5
M  V30 8 2 4 8
M  V30 9 2 5 6
M  V30 10 1 5 7
M  V30 11 1 7 10
M  V30 12 1 7 29
M  V30 13 1 8 9
M  V30 14 2 9 10
M  V30 15 1 9 11
M  V30 16 1 10 15
M  V30 17 2 11 12
M  V30 18 1 11 17
M  V30 19 1 12 13
M  V30 20 1 12 14
M  V30 21 1 13 30
M  V30 22 2 14 15
M  V30 23 1 14 31
M  V30 24 1 15 16
M  V30 25 1 16 32
M  V30 26 1 16 33
M  V30 27 1 16 34
M  V30 28 2 17 18
M  V30 29 1 17 22
M  V30 30 1 18 19
M  V30 31 1 18 35
M  V30 32 2 19 20
M  V30 33 1 19 36
M  V30 34 1 20 21
M  V30 35 1 20 23
M  V30 36 2 21 22
M  V30 37 1 21 37
M  V30 38 1 22 38
M  V30 39 1 23 24
M  V30 40 1 23 25
M  V30 41 1 23 39
M  V30 42 1 24 40
M  V30 43 1 24 41
M  V30 44 1 24 42
M  V30 45 1 25 26
M  V30 46 1 25 43
M  V30 47 1 25 44
M  V30 48 1 26 45
M  V30 49 1 26 46
M  V30 50 1 26 47
M  V30 END BOND
M  V30 END CTAB
M  END
> <s_m_entry_id>
1093

> <s_m_entry_name>
result.6678

> <s_m_Source_Path>
D:\OneDrive - zju.edu.cn\DOC\A-Finished\LCK_VS\Planet\LCK-8617

> <s_m_Source_File>
glide-dock_SP_top1262_2_pv.maegz

> <i_m_Source_File_Index>
1093

> <PLANET_affinity>
8.119

> <i_lp_mmshare_version>
54117

> <i_f3d_flags>
0

> <s_epik_input>
czFbY0hdW2NIXWMoYzEyKWMzYyhbbkhdYzI9TyljKFtDSDNdKVtjSF1jKFtPSF0pYzMtYzRbY0hdW2NIXWMoW2NIXVtjSF00KVtDQEBIXShbQ0gzXSlbQ0gyXVtOSDJd

> <s_epik_cmdline>
J2VwaWtfcHl0aG9uJywgJy1waCcsICc3LjAnLCAnLXRuJywgJzgnLCAnLW1hJywgJzUwMCcsICctaW1hZScsICc8aW5maWxlLm1hZT4nLCAnLW9tYWUnLCAnPG91dGZpbGUubWFlPic=

> <r_epik_Ionization_Penalty>
  0.0043

> <r_epik_Ionization_Penalty_Charging>
  0.0018

> <r_epik_Ionization_Penalty_Neutral>
  0.0024

> <r_epik_State_Penalty>
  0.0000

> <r_epik_Charging_Adjusted_Penalty>
0.00183715

> <i_epik_Tot_Q>
1

> <i_epik_Tot_abs_Q>
1

> <s_lp_Force_Field>
S-OPLS

> <r_lp_Energy>
44.3893

> <b_lp_Chiralities_Consistent>
1

> <s_lp_Variant>
O=C1NC2=C(C(C3=CC=C([C@@H](C)CN)C=C3)=C(O)C=C2C)C4=C1SC=C4-1

> <s_i_glide_gridfile>
glide-grid_1

> <i_i_glide_lignum>
1191

> <i_i_glide_rotatable_bonds>
4

> <r_i_docking_score>
-7.48162657154182

> <r_i_glide_ligand_efficiency>
-0.287754868136224

> <r_i_glide_ligand_efficiency_sa>
-0.852472664592832

> <r_i_glide_ligand_efficiency_ln>
-1.75703545110749

> <r_i_glide_gscore>
-7.48162657154182

> <r_i_glide_lipo>
-2.27840339522113

> <r_i_glide_hbond>
-0.519766256135423

> <r_i_glide_metal>
0

> <r_i_glide_rewards>
-1.48391912121212

> <r_i_glide_evdw>
-31.7464466094971

> <r_i_glide_ecoul>
-12.0198707580566

> <r_i_glide_erotb>
0.288040406382403

> <r_i_glide_esite>
-0.0972752611722016

> <r_i_glide_emodel>
-67.1179806240371

> <r_i_glide_energy>
-43.7663173675537

> <r_i_glide_einternal>
1.98106491565704

> <i_i_glide_confnum>
7

> <i_i_glide_posenum>
100

> <r_i_glide_eff_state_penalty>
0

> <r_lp_tautomer_probability>
1

> <s_m_subgroup_title>
glide-dock_SP_top1262_2_pv

> <s_m_subgroupid>
glide-dock_SP_top1262_2_pv

> <b_m_subgroup_collapsed>
0

$$$$
O=C(C1=C(NC2=CC=C(N(CC)CC)C=C2)C3=CC(C)=CC=C3N=C1)OCC
                    3D
 Schrodinger Suite 2021-3.
  0  0  0     0  0            999 V3000
M  V30 BEGIN CTAB
M  V30 COUNTS 56 58 0 0 0
M  V30 BEGIN ATOM
M  V30 1 C  27.2267 37.5956 84.6526 0
M  V30 2 C  28.4389 37.2721 84.0442 0
M  V30 3 C  29.6997 38.0340 84.4087 0
M  V30 4 C  28.4913 36.2522 83.1008 0
M  V30 5 C  27.3387 35.5561 82.7518 0
M  V30 6 C  26.0852 35.8992 83.3044 0
M  V30 7 C  26.0195 36.9104 84.3075 0
M  V30 8 N  24.9818 35.2459 82.8568 0
M  V30 9 C  23.7852 35.5589 83.4032 0
M  V30 10 C  23.6062 36.4806 84.4440 0
M  V30 11 C  22.2196 36.5985 85.0144 0
M  V30 12 O  21.1981 36.3566 84.3650 0
M  V30 13 O  22.2174 36.8304 86.3524 0
M  V30 14 C  21.0210 36.8039 87.1244 0
M  V30 15 C  20.6601 35.3641 87.5212 0
M  V30 16 C  24.7464 37.1885 84.9038 0
M  V30 17 N  24.7100 38.1238 85.9553 0
M  V30 18 C  24.1136 39.3896 86.0173 0
M  V30 19 C  24.4102 40.1646 87.1394 0
M  V30 20 C  23.9468 41.4706 87.2336 0
M  V30 21 C  23.1726 41.9855 86.1921 0
M  V30 22 C  22.8481 41.2236 85.0691 0
M  V30 23 C  23.3256 39.9154 84.9849 0
M  V30 24 N  22.7210 43.4112 86.2272 0 CHG=1
M  V30 25 C  22.2693 43.9784 87.5996 0
M  V30 26 C  21.2581 43.0490 88.3001 0
M  V30 27 C  23.6828 44.3877 85.4973 0
M  V30 28 C  25.1415 44.2874 85.9847 0
M  V30 29 H  27.2067 38.3851 85.3891 0
M  V30 30 H  30.3842 38.0866 83.5608 0
M  V30 31 H  30.2125 37.5535 85.2425 0
M  V30 32 H  29.4693 39.0633 84.6864 0
M  V30 33 H  29.4321 35.9822 82.6412 0
M  V30 34 H  27.3993 34.7465 82.0430 0
M  V30 35 H  22.9520 34.9869 83.0118 0
M  V30 36 H  21.1911 37.3931 88.0257 0
M  V30 37 H  20.1966 37.2812 86.5909 0
M  V30 38 H  19.7691 35.3390 88.1485 0
M  V30 39 H  20.4614 34.7543 86.6423 0
M  V30 40 H  21.4741 34.8886 88.0688 0
M  V30 41 H  25.5575 38.1004 86.5012 0
M  V30 42 H  25.0255 39.7664 87.9333 0
M  V30 43 H  24.2135 42.0680 88.0927 0
M  V30 44 H  22.2596 41.6362 84.2616 0
M  V30 45 H  23.1073 39.3291 84.1044 0
M  V30 46 H  23.1672 44.1435 88.1955 0
M  V30 47 H  21.8095 44.9417 87.3666 0
M  V30 48 H  20.8043 43.5561 89.1521 0
M  V30 49 H  20.4475 42.7566 87.6322 0
M  V30 50 H  21.7221 42.1365 88.6711 0
M  V30 51 H  23.5913 44.1197 84.4438 0
M  V30 52 H  23.2824 45.3926 85.6323 0
M  V30 53 H  25.7646 45.0119 85.4600 0
M  V30 54 H  25.2320 44.4914 87.0510 0
M  V30 55 H  25.5688 43.3037 85.7885 0
M  V30 56 H  21.8611 43.4749 85.6950 0
M  V30 END ATOM
M  V30 BEGIN BOND
M  V30 1 2 1 2
M  V30 2 1 1 7
M  V30 3 1 1 29
M  V30 4 1 2 3
M  V30 5 1 2 4
M  V30 6 1 3 30
M  V30 7 1 3 31
M  V30 8 1 3 32
M  V30 9 2 4 5
M  V30 10 1 4 33
M  V30 11 1 5 6
M  V30 12 1 5 34
M  V30 13 2 6 7
M  V30 14 1 6 8
M  V30 15 1 7 16
M  V30 16 2 8 9
M  V30 17 1 9 10
M  V30 18 1 9 35
M  V30 19 1 10 11
M  V30 20 2 10 16
M  V30 21 2 11 12
M  V30 22 1 11 13
M  V30 23 1 13 14
M  V30 24 1 14 15
M  V30 25 1 14 36
M  V30 26 1 14 37
M  V30 27 1 15 38
M  V30 28 1 15 39
M  V30 29 1 15 40
M  V30 30 1 16 17
M  V30 31 1 17 18
M  V30 32 1 17 41
M  V30 33 2 18 19
M  V30 34 1 18 23
M  V30 35 1 19 20
M  V30 36 1 19 42
M  V30 37 2 20 21
M  V30 38 1 20 43
M  V30 39 1 21 22
M  V30 40 1 21 24
M  V30 41 2 22 23
M  V30 42 1 22 44
M  V30 43 1 23 45
M  V30 44 1 24 25
M  V30 45 1 24 27
M  V30 46 1 24 56
M  V30 47 1 25 26
M  V30 48 1 25 46
M  V30 49 1 25 47
M  V30 50 1 26 48
M  V30 51 1 26 49
M  V30 52 1 26 50
M  V30 53 1 27 28
M  V30 54 1 27 51
M  V30 55 1 27 52
M  V30 56 1 28 53
M  V30 57 1 28 54
M  V30 58 1 28 55
M  V30 END BOND
M  V30 END CTAB
M  END
> <s_m_entry_id>
1095

> <s_m_entry_name>
result.5799

> <s_m_Source_Path>
D:\OneDrive - zju.edu.cn\DOC\A-Finished\LCK_VS\Planet\LCK-8617

> <s_m_Source_File>
glide-dock_SP_top1262_2_pv.maegz

> <i_m_Source_File_Index>
1095

> <PLANET_affinity>
7.622

> <i_lp_mmshare_version>
54117

> <i_f3d_flags>
0

> <s_epik_input>
W2NIXTFbY0hdYyhbQ0gzXSlbY0hdYyhjMTIpYyhjKFtjSF1uMilDKD1PKU9bQ0gyXVtDSDNdKVtOSF1jM1tjSF1bY0hdYyhbY0hdW2NIXTMpTihbQ0gyXVtDSDNdKVtDSDJdW0NIM10=

> <s_epik_cmdline>
J2VwaWtfcHl0aG9uJywgJy1waCcsICc3LjAnLCAnLXRuJywgJzgnLCAnLW1hJywgJzUwMCcsICctaW1hZScsICc8aW5maWxlLm1hZT4nLCAnLW9tYWUnLCAnPG91dGZpbGUubWFlPic=

> <r_epik_Ionization_Penalty>
  0.1786

> <r_epik_Ionization_Penalty_Charging>
  0.1060

> <r_epik_Ionization_Penalty_Neutral>
  0.0726

> <r_epik_State_Penalty>
  0.1597

> <r_epik_Charging_Adjusted_Penalty>
0.265675

> <i_epik_Tot_Q>
1

> <i_epik_Tot_abs_Q>
1

> <s_epik_Chemistry_Notes>
This compound has an ester and may undergo hydrolysis at high or low pH.

> <s_lp_Force_Field>
S-OPLS

> <r_lp_Energy>
44.8217

> <b_lp_Chiralities_Consistent>
1

> <s_lp_Variant>
O=C(C1=C(NC2=CC=C(N(CC)CC)C=C2)C3=CC(C)=CC=C3N=C1)OCC-1

> <s_i_glide_gridfile>
glide-grid_1

> <i_i_glide_lignum>
1764

> <i_i_glide_rotatable_bonds>
8

> <r_i_docking_score>
-7.48123407670387

> <r_i_glide_ligand_efficiency>
-0.267186931310852

> <r_i_glide_ligand_efficiency_sa>
-0.811336888146654

> <r_i_glide_ligand_efficiency_ln>
-1.72688848348051

> <r_i_glide_gscore>
-7.64093407670387

> <r_i_glide_lipo>
-2.59880353616073

> <r_i_glide_hbond>
-0.302658393929848

> <r_i_glide_metal>
0

> <r_i_glide_rewards>
-2.13379921883586

> <r_i_glide_evdw>
-37.2788963317871

> <r_i_glide_ecoul>
-9.0526762008667

> <r_i_glide_erotb>
0.676416699307614

> <r_i_glide_esite>
-0.0602433803656855

> <r_i_glide_emodel>
-67.5936213917708

> <r_i_glide_energy>
-46.3315725326538

> <r_i_glide_einternal>
10.4765367507935

> <i_i_glide_confnum>
18

> <i_i_glide_posenum>
297

> <r_i_glide_eff_state_penalty>
0.1597

> <s_m_subgroup_title>
glide-dock_SP_top1262_2_pv

> <s_m_subgroupid>
glide-dock_SP_top1262_2_pv

> <b_m_subgroup_collapsed>
0

$$$$
O=C([C@@]1(CC2=NC(NC3=NNC(C)=C3)=CC=C2F)C[C@@H](C)N(CC4=CC=CC(Cl)=C4F)CC1)O
                    3D
 Schrodinger Suite 2021-3.
  0  0  0     0  0            999 V3000
M  V30 BEGIN CTAB
M  V30 COUNTS 60 63 0 0 0
M  V30 BEGIN ATOM
M  V30 1 C  21.9519 36.0451 84.5623 0
M  V30 2 C  23.2275 35.8550 83.7829 0
M  V30 3 C  24.5436 36.2297 83.9933 0
M  V30 4 N  23.2822 35.1659 82.6027 0
M  V30 5 N  24.4924 35.1567 82.0450 0
M  V30 6 C  25.2794 35.7773 82.8855 0
M  V30 7 N  26.6146 35.8555 82.5827 0
M  V30 8 C  27.6440 36.5404 83.2425 0
M  V30 9 C  28.9546 36.2996 82.8190 0
M  V30 10 C  30.0028 36.9842 83.4350 0
M  V30 11 C  29.7216 37.8981 84.4489 0
M  V30 12 F  30.7296 38.5685 85.0535 0
M  V30 13 N  27.3605 37.4162 84.2438 0
M  V30 14 C  28.3857 38.0960 84.8232 0
M  V30 15 C  27.9946 39.0993 85.9093 0
M  V30 16 C  27.2616 40.4224 85.4646 0 CFG=2
M  V30 17 C  28.0694 41.2148 84.3589 0
M  V30 18 O  28.4830 42.3706 84.5994 0
M  V30 19 O  28.2478 40.6717 83.2435 0 CHG=-1
M  V30 20 C  27.0383 41.3330 86.7227 0
M  V30 21 C  26.1002 40.7388 87.8039 0 CFG=1
M  V30 22 C  25.8719 41.7910 88.9160 0
M  V30 23 N  24.7315 40.3916 87.1430 0 CHG=1 CFG=1
M  V30 24 C  24.8701 39.5257 85.8623 0
M  V30 25 C  25.8340 40.1942 84.8683 0
M  V30 26 C  23.7430 39.6784 88.1031 0
M  V30 27 C  22.2799 39.9616 87.7978 0
M  V30 28 C  21.8100 41.2779 87.8539 0
M  V30 29 C  20.4714 41.5561 87.5932 0
M  V30 30 C  19.5895 40.5237 87.2745 0
M  V30 31 C  20.0425 39.2032 87.2427 0
M  V30 32 Cl 18.9335 37.9278 86.8874 0
M  V30 33 C  21.3875 38.9207 87.5101 0
M  V30 34 F  21.8160 37.6356 87.5302 0
M  V30 35 H  21.1127 36.2837 83.9093 0
M  V30 36 H  21.6835 35.1586 85.1391 0
M  V30 37 H  22.0399 36.8745 85.2593 0
M  V30 38 H  24.9273 36.7574 84.8484 0
M  V30 39 H  22.4900 34.7018 82.1691 0
M  V30 40 H  26.9548 35.3623 81.7680 0
M  V30 41 H  29.1637 35.6035 82.0178 0
M  V30 42 H  31.0229 36.8129 83.1229 0
M  V30 43 H  28.8989 39.3685 86.4586 0
M  V30 44 H  27.4023 38.5473 86.6362 0
M  V30 45 H  26.5841 42.2765 86.4084 0
M  V30 46 H  28.0027 41.5819 87.1734 0
M  V30 47 H  26.4955 39.8128 88.2229 0
M  V30 48 H  26.8261 42.1745 89.2804 0
M  V30 49 H  25.3015 42.6482 88.5555 0
M  V30 50 H  25.3660 41.3955 89.7945 0
M  V30 51 H  25.2163 38.5392 86.1672 0
M  V30 52 H  23.8710 39.4305 85.4339 0
M  V30 53 H  25.8734 39.5886 83.9614 0
M  V30 54 H  25.3845 41.1465 84.5781 0
M  V30 55 H  23.9521 40.0010 89.1187 0
M  V30 56 H  23.9904 38.6177 88.0435 0
M  V30 57 H  22.4774 42.0934 88.0977 0
M  V30 58 H  20.1146 42.5758 87.6388 0
M  V30 59 H  18.5483 40.7487 87.0801 0
M  V30 60 H  24.3237 41.2710 86.8527 0
M  V30 END ATOM
M  V30 BEGIN BOND
M  V30 1 1 1 2
M  V30 2 1 1 35
M  V30 3 1 1 36
M  V30 4 1 1 37
M  V30 5 2 2 3
M  V30 6 1 2 4
M  V30 7 1 3 6
M  V30 8 1 3 38
M  V30 9 1 4 5
M  V30 10 1 4 39
M  V30 11 2 5 6
M  V30 12 1 6 7
M  V30 13 1 7 8
M  V30 14 1 7 40
M  V30 15 2 8 9
M  V30 16 1 8 13
M  V30 17 1 9 10
M  V30 18 1 9 41
M  V30 19 2 10 11
M  V30 20 1 10 42
M  V30 21 1 11 12
M  V30 22 1 11 14
M  V30 23 2 13 14
M  V30 24 1 14 15
M  V30 25 1 15 16
M  V30 26 1 15 43
M  V30 27 1 15 44
M  V30 28 1 16 17
M  V30 29 1 16 20
M  V30 30 1 16 25
M  V30 31 2 17 18
M  V30 32 1 17 19
M  V30 33 1 20 21
M  V30 34 1 20 45
M  V30 35 1 20 46
M  V30 36 1 21 22
M  V30 37 1 21 23
M  V30 38 1 21 47
M  V30 39 1 22 48
M  V30 40 1 22 49
M  V30 41 1 22 50
M  V30 42 1 23 24
M  V30 43 1 23 26
M  V30 44 1 23 60
M  V30 45 1 24 25
M  V30 46 1 24 51
M  V30 47 1 24 52
M  V30 48 1 25 53
M  V30 49 1 25 54
M  V30 50 1 26 27
M  V30 51 1 26 55
M  V30 52 1 26 56
M  V30 53 2 27 28
M  V30 54 1 27 33
M  V30 55 1 28 29
M  V30 56 1 28 57
M  V30 57 2 29 30
M  V30 58 1 29 58
M  V30 59 1 30 31
M  V30 60 1 30 59
M  V30 61 1 31 32
M  V30 62 2 31 33
M  V30 63 1 33 34
M  V30 END BOND
M  V30 END CTAB
M  END
> <s_m_entry_id>
1099

> <s_m_entry_name>
result.746

> <s_m_Source_Path>
D:\OneDrive - zju.edu.cn\DOC\A-Finished\LCK_VS\Planet\LCK-8617

> <s_m_Source_File>
glide-dock_SP_top1262_2_pv.maegz

> <i_m_Source_File_Index>
1099

> <PLANET_affinity>
7.697

> <i_lp_mmshare_version>
54117

> <i_f3d_flags>
0

> <s_epik_input>
W0NIM11jMVtjSF1jKG5bbkhdMSlbTkhdYzJbY0hdW2NIXWMoRiljKG4yKVtDSDJdW0NAXTMoQyg9TylbT0hdKVtDSDJdW0NAQEhdKFtDSDNdKU4oW0NIMl1bQ0gyXTMpW0NIMl1jNFtjSF1bY0hdW2NIXWMoQ2wpYzRG

> <s_epik_cmdline>
J2VwaWtfcHl0aG9uJywgJy1waCcsICc3LjAnLCAnLXRuJywgJzgnLCAnLW1hJywgJzUwMCcsICctaW1hZScsICc8aW5maWxlLm1hZT4nLCAnLW9tYWUnLCAnPG91dGZpbGUubWFlPic=

> <r_epik_Ionization_Penalty>
  0.0050

> <r_epik_Ionization_Penalty_Charging>
  0.0039

> <r_epik_Ionization_Penalty_Neutral>
  0.0011

> <r_epik_State_Penalty>
  0.0915

> <r_epik_Charging_Adjusted_Penalty>
0.0953695

> <i_epik_Tot_Q>
0

> <i_epik_Tot_abs_Q>
2

> <s_lp_Force_Field>
S-OPLS

> <r_lp_Energy>
46.4041

> <b_lp_Chiralities_Consistent>
1

> <s_lp_Variant>
O=C([C@@]1(CC2=NC(NC3=NNC(C)=C3)=CC=C2F)C[C@@H](C)N(CC4=CC=CC(Cl)=C4F)CC1)O-1

> <s_i_glide_gridfile>
glide-grid_1

> <i_i_glide_lignum>
1661

> <i_i_glide_rotatable_bonds>
7

> <r_i_docking_score>
-7.47647430531384

> <r_i_glide_ligand_efficiency>
-0.219896303097466

> <r_i_glide_ligand_efficiency_sa>
-0.712378657734473

> <r_i_glide_ligand_efficiency_ln>
-1.65176288204481

> <r_i_glide_gscore>
-7.56797430531384

> <r_i_glide_lipo>
-2.15786360370806

> <r_i_glide_hbond>
-0.928910938489441

> <r_i_glide_metal>
0

> <r_i_glide_rewards>
-1.48954060598646

> <r_i_glide_evdw>
-38.0659523010254

> <r_i_glide_ecoul>
-9.61789798736572

> <r_i_glide_erotb>
0.356005285204023

> <r_i_glide_esite>
-0.00168212917777499

> <r_i_glide_emodel>
-69.6262905259865

> <r_i_glide_energy>
-47.6838502883911

> <r_i_glide_einternal>
2.85562562942505

> <i_i_glide_confnum>
2

> <i_i_glide_posenum>
220

> <r_i_glide_eff_state_penalty>
0.0915

> <r_lp_tautomer_probability>
0.8426

> <s_m_subgroup_title>
glide-dock_SP_top1262_2_pv

> <s_m_subgroupid>
glide-dock_SP_top1262_2_pv

> <b_m_subgroup_collapsed>
0

$$$$
CC1=CC(N=C2C(N3)=O)=C(C=C1C)N(C[C@@H]([C@@H]([C@@H](COP(OP(OC[C@H]4O[C@@H](N5...
                    3D
 Schrodinger Suite 2021-3.
  0  0  0     0  0            999 V3000
M  V30 BEGIN CTAB
M  V30 COUNTS 84 89 0 0 0
M  V30 BEGIN ATOM
M  V30 1 N  28.9173 37.4114 83.7692 0
M  V30 2 C  29.0656 36.3566 82.8423 0
M  V30 3 O  30.0927 35.9515 82.3130 0
M  V30 4 N  27.9301 35.7018 82.4454 0
M  V30 5 C  26.6427 35.8793 82.8675 0
M  V30 6 O  25.7345 35.1655 82.4377 0
M  V30 7 C  26.4898 36.9545 83.8644 0
M  V30 8 N  25.3289 37.1855 84.3434 0
M  V30 9 C  27.7639 37.7055 84.2681 0
M  V30 10 N  27.5795 38.7312 85.2322 0
M  V30 11 C  26.2769 38.9813 85.7874 0
M  V30 12 C  25.1918 38.1968 85.3139 0
M  V30 13 C  26.0183 39.9463 86.7710 0
M  V30 14 C  24.7252 40.1512 87.2612 0
M  V30 15 C  24.4987 41.2327 88.3051 0
M  V30 16 C  23.6606 39.3725 86.7801 0
M  V30 17 C  22.2409 39.5585 87.2998 0
M  V30 18 C  23.9042 38.3977 85.8114 0
M  V30 19 C  28.7482 39.5629 85.6166 0
M  V30 20 C  28.9929 40.8206 84.7203 0 CFG=2
M  V30 21 O  30.2922 40.7602 84.1489 0
M  V30 22 C  28.7530 42.1967 85.4252 0 CFG=2
M  V30 23 O  28.4829 43.1877 84.4442 0
M  V30 24 C  29.8986 42.7087 86.3545 0 CFG=2
M  V30 25 O  30.2235 41.7280 87.3259 0
M  V30 26 C  29.5715 44.0290 87.0892 0
M  V30 27 O  30.7649 44.5672 87.6386 0
M  V30 28 P  30.6314 45.4649 89.1011 0
M  V30 29 O  29.4695 46.4246 88.9673 0
M  V30 30 O  32.0240 45.8945 89.5020 0 CHG=-1
M  V30 31 O  30.1613 44.1650 90.0815 0
M  V30 32 P  29.2190 43.8111 91.4404 0
M  V30 33 O  29.5566 44.7896 92.5407 0
M  V30 34 O  29.2022 42.3121 91.6434 0 CHG=-1
M  V30 35 O  27.6737 44.2219 90.8089 0
M  V30 36 C  26.6244 44.3899 91.7447 0
M  V30 37 C  26.2526 43.0744 92.4631 0 CFG=1
M  V30 38 O  25.0947 43.3029 93.2444 0
M  V30 39 C  24.4043 42.1152 93.5128 0 CFG=2
M  V30 40 C  24.9452 41.0698 92.5208 0 CFG=2
M  V30 41 O  25.6827 40.0936 93.2434 0
M  V30 42 C  25.7582 41.9473 91.5682 0 CFG=2
M  V30 43 O  26.7767 41.2498 90.8696 0
M  V30 44 N  22.9179 42.3705 93.4052 0
M  V30 45 C  22.2682 43.4068 92.8351 0
M  V30 46 N  20.9648 43.3357 92.9462 0
M  V30 47 C  21.9457 41.5354 93.8700 0
M  V30 48 C  20.7538 42.1850 93.6039 0
M  V30 49 N  22.0804 40.3328 94.4832 0
M  V30 50 C  20.8908 39.8284 94.8436 0
M  V30 51 N  19.6686 40.3569 94.6830 0
M  V30 52 C  19.5678 41.5540 94.0435 0
M  V30 53 N  18.2979 42.0763 93.8383 0
M  V30 54 H  28.0763 34.9893 81.7462 0
M  V30 55 H  26.8107 40.5524 87.1766 0
M  V30 56 H  24.2136 40.7802 89.2537 0
M  V30 57 H  25.3843 41.8490 88.4613 0
M  V30 58 H  23.6919 41.8969 87.9965 0
M  V30 59 H  21.5565 38.7998 86.9178 0
M  V30 60 H  22.2225 39.4969 88.3886 0
M  V30 61 H  21.8602 40.5405 87.0160 0
M  V30 62 H  23.0880 37.7924 85.4416 0
M  V30 63 H  28.6862 39.8446 86.6657 0
M  V30 64 H  29.6454 38.9418 85.6063 0
M  V30 65 H  28.2983 40.7537 83.8803 0
M  V30 66 H  30.4839 41.5970 83.7049 0
M  V30 67 H  27.8444 42.1257 86.0190 0
M  V30 68 H  29.3236 43.5184 84.0889 0
M  V30 69 H  30.7930 42.8878 85.7545 0
M  V30 70 H  30.7356 41.0304 86.9095 0
M  V30 71 H  29.1607 44.7726 86.4062 0
M  V30 72 H  28.8068 43.8537 87.8478 0
M  V30 73 H  26.8993 45.1557 92.4702 0
M  V30 74 H  25.7609 44.7806 91.2089 0
M  V30 75 H  27.0580 42.7418 93.1217 0
M  V30 76 H  24.5953 41.8374 94.5529 0
M  V30 77 H  24.1210 40.5940 91.9878 0
M  V30 78 H  25.0878 39.6287 93.8421 0
M  V30 79 H  25.0710 42.3790 90.8405 0
M  V30 80 H  27.6418 41.6170 91.1259 0
M  V30 81 H  22.8200 44.2091 92.3631 0
M  V30 82 H  20.9233 38.8750 95.3519 0
M  V30 83 H  18.2263 43.0555 93.5971 0
M  V30 84 H  17.5321 41.6043 94.2955 0
M  V30 END ATOM
M  V30 BEGIN BOND
M  V30 1 1 1 2
M  V30 2 2 1 9
M  V30 3 2 2 3
M  V30 4 1 2 4
M  V30 5 1 4 5
M  V30 6 1 4 54
M  V30 7 2 5 6
M  V30 8 1 5 7
M  V30 9 2 7 8
M  V30 10 1 7 9
M  V30 11 1 8 12
M  V30 12 1 9 10
M  V30 13 1 10 11
M  V30 14 1 10 19
M  V30 15 2 11 12
M  V30 16 1 11 13
M  V30 17 1 12 18
M  V30 18 2 13 14
M  V30 19 1 13 55
M  V30 20 1 14 15
M  V30 21 1 14 16
M  V30 22 1 15 56
M  V30 23 1 15 57
M  V30 24 1 15 58
M  V30 25 1 16 17
M  V30 26 2 16 18
M  V30 27 1 17 59
M  V30 28 1 17 60
M  V30 29 1 17 61
M  V30 30 1 18 62
M  V30 31 1 19 20
M  V30 32 1 19 63
M  V30 33 1 19 64
M  V30 34 1 20 21
M  V30 35 1 20 22
M  V30 36 1 20 65
M  V30 37 1 21 66
M  V30 38 1 22 23
M  V30 39 1 22 24
M  V30 40 1 22 67
M  V30 41 1 23 68
M  V30 42 1 24 25
M  V30 43 1 24 26
M  V30 44 1 24 69
M  V30 45 1 25 70
M  V30 46 1 26 27
M  V30 47 1 26 71
M  V30 48 1 26 72
M  V30 49 1 27 28
M  V30 50 2 28 29
M  V30 51 1 28 30
M  V30 52 1 28 31
M  V30 53 1 31 32
M  V30 54 2 32 33
M  V30 55 1 32 34
M  V30 56 1 32 35
M  V30 57 1 35 36
M  V30 58 1 36 37
M  V30 59 1 36 73
M  V30 60 1 36 74
M  V30 61 1 37 38
M  V30 62 1 37 42
M  V30 63 1 37 75
M  V30 64 1 38 39
M  V30 65 1 39 40
M  V30 66 1 39 44
M  V30 67 1 39 76
M  V30 68 1 40 41
M  V30 69 1 40 42
M  V30 70 1 40 77
M  V30 71 1 41 78
M  V30 72 1 42 43
M  V30 73 1 42 79
M  V30 74 1 43 80
M  V30 75 1 44 45
M  V30 76 1 44 47
M  V30 77 2 45 46
M  V30 78 1 45 81
M  V30 79 1 46 48
M  V30 80 2 47 48
M  V30 81 1 47 49
M  V30 82 1 48 52
M  V30 83 2 49 50
M  V30 84 1 50 51
M  V30 85 1 50 82
M  V30 86 2 51 52
M  V30 87 1 52 53
M  V30 88 1 53 83
M  V30 89 1 53 84
M  V30 END BOND
M  V30 END CTAB
M  END
> <s_m_entry_id>
1101

> <s_m_entry_name>
result.7599

> <s_m_Source_Path>
D:\OneDrive - zju.edu.cn\DOC\A-Finished\LCK_VS\Planet\LCK-8617

> <s_m_Source_File>
glide-dock_SP_top1262_2_pv.maegz

> <i_m_Source_File_Index>
1101

> <PLANET_affinity>
9.214

> <i_lp_mmshare_version>
54117

> <i_f3d_flags>
0

> <s_epik_input>
Tz1jMVtuSF1jKD1PKW5jKGMxMiluKGMzYyhuMilbY0hdYyhbQ0gzXSljKFtjSF0zKVtDSDNdKVtDSDJdW0NASF0oW09IXSlbQ0BIXShbT0hdKVtDQEhdKFtPSF0pW0NIMl1PW1BAQF0oPU8pKFtPSF0pT1tQQEBdKD1PKShbT0hdKU9bQ0gyXVtDQEhdNE9bQ0BIXShbQ0BIXShbT0hdKVtDQEBIXTRbT0hdKW41W2NIXW5jKGM1NiljKFtOSDJdKW5bY0hdbjY=

> <s_epik_cmdline>
J2VwaWtfcHl0aG9uJywgJy1waCcsICc3LjAnLCAnLXRuJywgJzgnLCAnLW1hJywgJzUwMCcsICctaW1hZScsICc8aW5maWxlLm1hZT4nLCAnLW9tYWUnLCAnPG91dGZpbGUubWFlPic=

> <r_epik_Ionization_Penalty>
  0.0016

> <r_epik_Ionization_Penalty_Charging>
  0.0012

> <r_epik_Ionization_Penalty_Neutral>
  0.0004

> <r_epik_State_Penalty>
  0.0000

> <r_epik_Charging_Adjusted_Penalty>
0.00115362

> <i_epik_Tot_Q>
-2

> <i_epik_Tot_abs_Q>
2

> <s_epik_Chemistry_Notes>
This compound contains an acetal/aminal-like group ( X-CH(R)-Y where X, Y are N, S, or O) that may be acid/base labile, releasing an aldehyde.

> <s_lp_Force_Field>
S-OPLS

> <r_lp_Energy>
48.4707

> <b_lp_Chiralities_Consistent>
1

> <s_lp_Variant>
CC1=CC(N=C2C(N3)=O)=C(C=C1C)N(C[C@@H]([C@@H]([C@@H](COP(OP(OC[C@H]4O[C@@H](N5...-1

> <s_i_glide_gridfile>
glide-grid_1

> <i_i_glide_lignum>
446

> <i_i_glide_rotatable_bonds>
18

> <r_i_docking_score>
-7.47544582589593

> <r_i_glide_ligand_efficiency>
-0.141046147658414

> <r_i_glide_ligand_efficiency_sa>
-0.529809634435895

> <r_i_glide_ligand_efficiency_ln>
-1.5040255091483

> <r_i_glide_gscore>
-7.47544582589593

> <r_i_glide_lipo>
-1.4888041486156

> <r_i_glide_hbond>
-0.470673726203572

> <r_i_glide_metal>
0

> <r_i_glide_rewards>
-1.53598510785783

> <r_i_glide_evdw>
-55.8025169372559

> <r_i_glide_ecoul>
-8.89761352539062

> <r_i_glide_erotb>
0.181571218049439

> <r_i_glide_esite>
-0.0367861855969767

> <r_i_glide_emodel>
-85.142802742123

> <r_i_glide_energy>
-64.7001304626465

> <r_i_glide_einternal>
22.9688606262207

> <i_i_glide_confnum>
808

> <i_i_glide_posenum>
345

> <r_i_glide_eff_state_penalty>
0

> <r_lp_tautomer_probability>
1

> <s_m_subgroup_title>
glide-dock_SP_top1262_2_pv

> <s_m_subgroupid>
glide-dock_SP_top1262_2_pv

> <b_m_subgroup_collapsed>
0

$$$$
CC1=C(C2=C(C)N=CC3=NC=CN32)C=CC(OC4=C(C=CO5)C5=CC=N4)=C1
                    3D
 Schrodinger Suite 2021-3.
  0  0  0     0  0            999 V3000
M  V30 BEGIN CTAB
M  V30 COUNTS 43 47 0 0 0
M  V30 BEGIN ATOM
M  V30 1 N  17.6840 38.2571 84.8473 0
M  V30 2 C  18.3498 38.3589 83.7198 0
M  V30 3 C  19.6762 37.9553 83.8246 0
M  V30 4 N  19.7903 37.3845 85.0678 0
M  V30 5 C  18.5430 37.6203 85.6833 0
M  V30 6 C  20.8000 36.6902 85.7028 0
M  V30 7 C  20.4902 36.1408 86.9600 0
M  V30 8 C  21.3838 35.1113 87.6346 0
M  V30 9 N  19.3258 36.3996 87.6118 0
M  V30 10 C  18.3806 37.1568 86.9975 0
M  V30 11 C  22.1079 36.5026 84.9915 0
M  V30 12 C  23.3177 37.0178 85.5013 0
M  V30 13 C  23.3522 37.9579 86.7038 0
M  V30 14 C  22.1549 35.7914 83.7836 0
M  V30 15 C  23.3604 35.5560 83.1258 0
M  V30 16 C  24.5613 36.0365 83.6430 0
M  V30 17 C  24.5303 36.7302 84.8603 0
M  V30 18 O  25.6936 35.7667 82.8992 0
M  V30 19 C  26.9512 36.3012 83.1165 0
M  V30 20 N  27.9669 35.4437 82.8435 0
M  V30 21 C  29.2538 35.8572 82.9604 0
M  V30 22 C  29.6212 37.1435 83.3558 0
M  V30 23 C  28.5611 38.0290 83.5818 0
M  V30 24 C  27.2010 37.6553 83.4423 0
M  V30 25 O  28.6828 39.3480 83.9061 0
M  V30 26 C  27.4130 39.8391 83.9652 0
M  V30 27 C  26.4707 38.8655 83.6742 0
M  V30 28 H  17.8804 38.7584 82.8337 0
M  V30 29 H  20.4802 37.9468 83.1077 0
M  V30 30 H  22.2819 35.5627 88.0437 0
M  V30 31 H  20.8699 34.5850 88.4410 0
M  V30 32 H  21.6831 34.3567 86.9069 0
M  V30 33 H  17.4558 37.3218 87.5342 0
M  V30 34 H  24.3355 37.9800 87.1713 0
M  V30 35 H  23.1016 38.9683 86.3831 0
M  V30 36 H  22.6437 37.6812 87.4798 0
M  V30 37 H  21.2586 35.3949 83.3329 0
M  V30 38 H  23.3560 35.0022 82.1992 0
M  V30 39 H  25.4472 37.0873 85.3033 0
M  V30 40 H  30.0058 35.1144 82.7321 0
M  V30 41 H  30.6515 37.4476 83.4486 0
M  V30 42 H  27.3356 40.8896 84.2171 0
M  V30 43 H  25.4021 39.0134 83.6444 0
M  V30 END ATOM
M  V30 BEGIN BOND
M  V30 1 1 1 2
M  V30 2 2 1 5
M  V30 3 2 2 3
M  V30 4 1 2 28
M  V30 5 1 3 4
M  V30 6 1 3 29
M  V30 7 1 4 5
M  V30 8 1 4 6
M  V30 9 1 5 10
M  V30 10 2 6 7
M  V30 11 1 6 11
M  V30 12 1 7 8
M  V30 13 1 7 9
M  V30 14 1 8 30
M  V30 15 1 8 31
M  V30 16 1 8 32
M  V30 17 2 9 10
M  V30 18 1 10 33
M  V30 19 2 11 12
M  V30 20 1 11 14
M  V30 21 1 12 13
M  V30 22 1 12 17
M  V30 23 1 13 34
M  V30 24 1 13 35
M  V30 25 1 13 36
M  V30 26 2 14 15
M  V30 27 1 14 37
M  V30 28 1 15 16
M  V30 29 1 15 38
M  V30 30 2 16 17
M  V30 31 1 16 18
M  V30 32 1 17 39
M  V30 33 1 18 19
M  V30 34 2 19 20
M  V30 35 1 19 24
M  V30 36 1 20 21
M  V30 37 2 21 22
M  V30 38 1 21 40
M  V30 39 1 22 23
M  V30 40 1 22 41
M  V30 41 2 23 24
M  V30 42 1 23 25
M  V30 43 1 24 27
M  V30 44 1 25 26
M  V30 45 2 26 27
M  V30 46 1 26 42
M  V30 47 1 27 43
M  V30 END BOND
M  V30 END CTAB
M  END
> <s_m_entry_id>
1106

> <s_m_entry_name>
result.3559

> <s_m_Source_Path>
D:\OneDrive - zju.edu.cn\DOC\A-Finished\LCK_VS\Planet\LCK-8617

> <s_m_Source_File>
glide-dock_SP_top1262_2_pv.maegz

> <i_m_Source_File_Index>
1106

> <PLANET_affinity>
7.1

> <i_lp_mmshare_version>
54117

> <i_f3d_flags>
0

> <s_epik_input>
W2NIXTFbY0hdbmMobjEyKVtjSF1uYyhbQ0gzXSljMi1jM2MoW0NIM10pW2NIXWMoW2NIXVtjSF0zKU9jKG5bY0hdW2NIXTQpYyhjNDUpW2NIXVtjSF1vNQ==

> <s_epik_cmdline>
J2VwaWtfcHl0aG9uJywgJy1waCcsICc3LjAnLCAnLXRuJywgJzgnLCAnLW1hJywgJzUwMCcsICctaW1hZScsICc8aW5maWxlLm1hZT4nLCAnLW9tYWUnLCAnPG91dGZpbGUubWFlPic=

> <r_epik_Ionization_Penalty>
  0.0010

> <r_epik_Ionization_Penalty_Charging>
  0.0010

> <r_epik_Ionization_Penalty_Neutral>
  0.0000

> <r_epik_State_Penalty>
  0.0006

> <r_epik_Charging_Adjusted_Penalty>
0.00161593

> <i_epik_Tot_Q>
0

> <i_epik_Tot_abs_Q>
0

> <s_lp_Force_Field>
S-OPLS

> <r_lp_Energy>
52.0085

> <b_lp_Chiralities_Consistent>
1

> <s_lp_Variant>
CC1=C(C2=C(C)N=CC3=NC=CN32)C=CC(OC4=C(C=CO5)C5=CC=N4)=C1-1

> <s_i_glide_gridfile>
glide-grid_1

> <i_i_glide_lignum>
2539

> <i_i_glide_rotatable_bonds>
3

> <r_i_docking_score>
-7.47291060584081

> <r_i_glide_ligand_efficiency>
-0.276774466882993

> <r_i_glide_ligand_efficiency_sa>
-0.830323399736776

> <r_i_glide_ligand_efficiency_ln>
-1.73957038847976

> <r_i_glide_gscore>
-7.47351060584081

> <r_i_glide_lipo>
-4.13544368599357

> <r_i_glide_hbond>
0

> <r_i_glide_metal>
0

> <r_i_glide_rewards>
-1.44771480654187

> <r_i_glide_evdw>
-46.0664710998535

> <r_i_glide_ecoul>
-0.259598940610886

> <r_i_glide_erotb>
0.451911282778932

> <r_i_glide_esite>
0

> <r_i_glide_emodel>
-64.5919720088375

> <r_i_glide_energy>
-46.3260700404644

> <r_i_glide_einternal>
2.99213218688965

> <i_i_glide_confnum>
2

> <i_i_glide_posenum>
219

> <r_i_glide_eff_state_penalty>
0.0006

> <r_lp_tautomer_probability>
1

> <s_m_subgroup_title>
glide-dock_SP_top1262_2_pv

> <s_m_subgroupid>
glide-dock_SP_top1262_2_pv

> <b_m_subgroup_collapsed>
0

$$$$
O=C1C(O)=C(C2=CC=C(OC)C=C2)OC3=C(C/C=C(C)\C)C(O)=CC(O)=C13
                    3D
 Schrodinger Suite 2021-3.
  0  0  0     0  0            999 V3000
M  V30 BEGIN CTAB
M  V30 COUNTS 47 49 0 0 0
M  V30 BEGIN ATOM
M  V30 1 C  17.0127 37.5572 87.2975 0
M  V30 2 O  18.0932 36.7566 87.7647 0
M  V30 3 C  19.2805 36.7581 87.0591 0
M  V30 4 C  20.2722 35.8990 87.5242 0
M  V30 5 C  21.5033 35.8242 86.8842 0
M  V30 6 C  19.5333 37.5458 85.9236 0
M  V30 7 C  20.7615 37.4606 85.2730 0
M  V30 8 C  21.7491 36.5956 85.7492 0
M  V30 9 C  23.0555 36.5131 85.0732 0
M  V30 10 O  23.9845 37.2205 85.7553 0
M  V30 11 C  23.2946 35.8489 83.9258 0
M  V30 12 O  22.3311 35.1579 83.2427 0
M  V30 13 C  24.6392 35.8155 83.3308 0
M  V30 14 O  24.9390 35.1567 82.3310 0
M  V30 15 C  25.6376 36.6866 84.0442 0
M  V30 16 C  25.2568 37.3470 85.2265 0
M  V30 17 C  26.9496 36.8717 83.5842 0
M  V30 18 O  27.4301 36.2555 82.4648 0
M  V30 19 C  27.8272 37.7065 84.2635 0
M  V30 20 C  27.4329 38.3529 85.4247 0
M  V30 21 O  28.3399 39.1567 86.0603 0
M  V30 22 C  26.1442 38.1672 85.9341 0
M  V30 23 C  25.7319 38.8175 87.2576 0
M  V30 24 C  25.4741 40.3094 87.1250 0
M  V30 25 C  26.1230 41.3232 87.7389 0
M  V30 26 C  27.2895 41.1604 88.7037 0
M  V30 27 C  25.7247 42.7679 87.4956 0
M  V30 28 H  16.1690 37.4567 87.9795 0
M  V30 29 H  17.2824 38.6137 87.2588 0
M  V30 30 H  16.6821 37.2368 86.3090 0
M  V30 31 H  20.0753 35.2800 88.3869 0
M  V30 32 H  22.2610 35.1539 87.2625 0
M  V30 33 H  18.7889 38.2239 85.5342 0
M  V30 34 H  20.9473 38.0693 84.3976 0
M  V30 35 H  22.7013 34.6549 82.5046 0
M  V30 36 H  26.7688 35.6817 82.0590 0
M  V30 37 H  28.8292 37.8346 83.8794 0
M  V30 38 H  29.1839 39.1775 85.6057 0
M  V30 39 H  26.4920 38.5855 87.9996 0
M  V30 40 H  24.8215 38.3734 87.6573 0
M  V30 41 H  24.6591 40.5537 86.4578 0
M  V30 42 H  28.1525 41.7156 88.3391 0
M  V30 43 H  27.6135 40.1310 88.8394 0
M  V30 44 H  27.0174 41.5477 89.6861 0
M  V30 45 H  26.5613 43.3235 87.0722 0
M  V30 46 H  24.8877 42.8527 86.8008 0
M  V30 47 H  25.4282 43.2440 88.4303 0
M  V30 END ATOM
M  V30 BEGIN BOND
M  V30 1 1 1 2
M  V30 2 1 1 28
M  V30 3 1 1 29
M  V30 4 1 1 30
M  V30 5 1 2 3
M  V30 6 2 3 4
M  V30 7 1 3 6
M  V30 8 1 4 5
M  V30 9 1 4 31
M  V30 10 2 5 8
M  V30 11 1 5 32
M  V30 12 2 6 7
M  V30 13 1 6 33
M  V30 14 1 7 8
M  V30 15 1 7 34
M  V30 16 1 8 9
M  V30 17 1 9 10
M  V30 18 2 9 11
M  V30 19 1 10 16
M  V30 20 1 11 12
M  V30 21 1 11 13
M  V30 22 1 12 35
M  V30 23 2 13 14
M  V30 24 1 13 15
M  V30 25 2 15 16
M  V30 26 1 15 17
M  V30 27 1 16 22
M  V30 28 1 17 18
M  V30 29 2 17 19
M  V30 30 1 18 36
M  V30 31 1 19 20
M  V30 32 1 19 37
M  V30 33 1 20 21
M  V30 34 2 20 22
M  V30 35 1 21 38
M  V30 36 1 22 23
M  V30 37 1 23 24
M  V30 38 1 23 39
M  V30 39 1 23 40
M  V30 40 2 24 25 CFG=2
M  V30 41 1 24 41
M  V30 42 1 25 26
M  V30 43 1 25 27
M  V30 44 1 26 42
M  V30 45 1 26 43
M  V30 46 1 26 44
M  V30 47 1 27 45
M  V30 48 1 27 46
M  V30 49 1 27 47
M  V30 END BOND
M  V30 END CTAB
M  END
> <s_m_entry_id>
1112

> <s_m_entry_name>
result.3142

> <s_m_Source_Path>
D:\OneDrive - zju.edu.cn\DOC\A-Finished\LCK_VS\Planet\LCK-8617

> <s_m_Source_File>
glide-dock_SP_top1262_2_pv.maegz

> <i_m_Source_File_Index>
1112

> <PLANET_affinity>
7.249

> <i_lp_mmshare_version>
54117

> <i_f3d_flags>
0

> <s_epik_input>
W0NIM11PYzFbY0hdW2NIXWMoW2NIXVtjSF0xKS1jKGMoW09IXSljMj1PKW9jKGMyMyljKGMoW09IXSlbY0hdYzNbT0hdKVtDSDJdW0NIXT1DKFtDSDNdKVtDSDNd

> <s_epik_cmdline>
J2VwaWtfcHl0aG9uJywgJy1waCcsICc3LjAnLCAnLXRuJywgJzgnLCAnLW1hJywgJzUwMCcsICctaW1hZScsICc8aW5maWxlLm1hZT4nLCAnLW9tYWUnLCAnPG91dGZpbGUubWFlPic=

> <r_epik_Ionization_Penalty>
  0.0247

> <r_epik_Ionization_Penalty_Charging>
  0.0000

> <r_epik_Ionization_Penalty_Neutral>
  0.0247

> <r_epik_State_Penalty>
  0.0160

> <r_epik_Charging_Adjusted_Penalty>
0.0159992

> <i_epik_Tot_Q>
0

> <i_epik_Tot_abs_Q>
0

> <s_lp_Force_Field>
S-OPLS

> <r_lp_Energy>
20.5455

> <b_lp_Chiralities_Consistent>
1

> <s_lp_Variant>
O=C1C(O)=C(C2=CC=C(OC)C=C2)OC3=C(C/C=C(C)\C)C(O)=CC(O)=C13-1

> <s_i_glide_gridfile>
glide-grid_1

> <i_i_glide_lignum>
2320

> <i_i_glide_rotatable_bonds>
7

> <r_i_docking_score>
-7.47085900602989

> <r_i_glide_ligand_efficiency>
-0.276698481704811

> <r_i_glide_ligand_efficiency_sa>
-0.83009544420248

> <r_i_glide_ligand_efficiency_ln>
-1.73909280986704

> <r_i_glide_gscore>
-7.48685900602989

> <r_i_glide_lipo>
-3.62753741367549

> <r_i_glide_hbond>
-0.32

> <r_i_glide_metal>
0

> <r_i_glide_rewards>
-1.397389721787

> <r_i_glide_evdw>
-38.0376739501953

> <r_i_glide_ecoul>
-4.44021368026733

> <r_i_glide_erotb>
0.425983878982462

> <r_i_glide_esite>
0

> <r_i_glide_emodel>
-60.3627910709954

> <r_i_glide_energy>
-42.4778876304626

> <r_i_glide_einternal>
4.21795272827148

> <i_i_glide_confnum>
2

> <i_i_glide_posenum>
321

> <r_i_glide_eff_state_penalty>
0.016

> <r_lp_tautomer_probability>
1

> <s_m_subgroup_title>
glide-dock_SP_top1262_2_pv

> <s_m_subgroupid>
glide-dock_SP_top1262_2_pv

> <b_m_subgroup_collapsed>
0

$$$$
O[C@H]1CN(C2=NC=C(C3=CC(C(F)(F)F)=CC4=C3C=NN4)C(C)=N2)CC1
                    3D
 Schrodinger Suite 2021-3.
  0  0  0     0  0            999 V3000
M  V30 BEGIN CTAB
M  V30 COUNTS 42 45 0 0 0
M  V30 BEGIN ATOM
M  V30 1 O  31.4981 42.7775 85.6438 0
M  V30 2 C  31.8642 41.4096 85.6038 0 CFG=1
M  V30 3 C  30.6983 40.5346 86.0680 0
M  V30 4 N  29.8327 40.2440 84.9218 0
M  V30 5 C  30.5916 40.6025 83.7228 0
M  V30 6 C  32.0205 40.9234 84.1705 0
M  V30 7 C  28.5820 39.6147 84.9619 0
M  V30 8 N  27.9423 39.4156 83.7797 0
M  V30 9 C  26.7379 38.7980 83.8457 0
M  V30 10 C  26.1499 38.3648 85.0436 0
M  V30 11 C  26.8982 38.6198 86.2095 0
M  V30 12 N  28.1009 39.2502 86.1798 0
M  V30 13 C  26.4604 38.1783 87.5973 0
M  V30 14 C  24.8258 37.6789 85.0198 0
M  V30 15 C  23.7776 38.0626 85.8662 0
M  V30 16 C  22.5154 37.4587 85.8234 0
M  V30 17 C  21.4329 37.9307 86.7948 0
M  V30 18 F  21.8247 37.6764 88.0416 0
M  V30 19 F  21.2459 39.2443 86.6653 0
M  V30 20 F  20.2628 37.3204 86.5950 0
M  V30 21 C  22.2393 36.4463 84.8966 0
M  V30 22 C  24.5591 36.6508 84.0941 0
M  V30 23 C  23.2691 36.0681 84.0359 0
M  V30 24 C  25.2913 35.9637 83.0780 0
M  V30 25 N  24.5413 35.1069 82.4434 0
M  V30 26 N  23.3209 35.1567 83.0004 0
M  V30 27 H  31.2834 43.0720 84.7366 0
M  V30 28 H  32.7776 41.2379 86.1752 0
M  V30 29 H  30.1612 40.9975 86.8968 0
M  V30 30 H  31.0712 39.5812 86.4456 0
M  V30 31 H  30.6273 39.7434 83.0520 0
M  V30 32 H  30.1392 41.4493 83.2069 0
M  V30 33 H  32.6315 40.0206 84.1320 0
M  V30 34 H  32.5155 41.6477 83.5237 0
M  V30 35 H  26.2418 38.6513 82.8992 0
M  V30 36 H  25.6799 38.8326 87.9807 0
M  V30 37 H  26.0835 37.1572 87.5640 0
M  V30 38 H  27.2843 38.2033 88.3153 0
M  V30 39 H  23.9374 38.8681 86.5680 0
M  V30 40 H  21.2693 35.9825 84.8408 0
M  V30 41 H  26.3266 36.0980 82.7985 0
M  V30 42 H  22.5823 34.5528 82.6550 0
M  V30 END ATOM
M  V30 BEGIN BOND
M  V30 1 1 1 2
M  V30 2 1 1 27
M  V30 3 1 2 3
M  V30 4 1 2 6
M  V30 5 1 2 28
M  V30 6 1 3 4
M  V30 7 1 3 29
M  V30 8 1 3 30
M  V30 9 1 4 5
M  V30 10 1 4 7
M  V30 11 1 5 6
M  V30 12 1 5 31
M  V30 13 1 5 32
M  V30 14 1 6 33
M  V30 15 1 6 34
M  V30 16 2 7 8
M  V30 17 1 7 12
M  V30 18 1 8 9
M  V30 19 2 9 10
M  V30 20 1 9 35
M  V30 21 1 10 11
M  V30 22 1 10 14
M  V30 23 2 11 12
M  V30 24 1 11 13
M  V30 25 1 13 36
M  V30 26 1 13 37
M  V30 27 1 13 38
M  V30 28 2 14 15
M  V30 29 1 14 22
M  V30 30 1 15 16
M  V30 31 1 15 39
M  V30 32 1 16 17
M  V30 33 2 16 21
M  V30 34 1 17 18
M  V30 35 1 17 19
M  V30 36 1 17 20
M  V30 37 1 21 23
M  V30 38 1 21 40
M  V30 39 2 22 23
M  V30 40 1 22 24
M  V30 41 1 23 26
M  V30 42 2 24 25
M  V30 43 1 24 41
M  V30 44 1 25 26
M  V30 45 1 26 42
M  V30 END BOND
M  V30 END CTAB
M  END
> <s_m_entry_id>
1122

> <s_m_entry_name>
result.1742

> <s_m_Source_Path>
D:\OneDrive - zju.edu.cn\DOC\A-Finished\LCK_VS\Planet\LCK-8617

> <s_m_Source_File>
glide-dock_SP_top1262_2_pv.maegz

> <i_m_Source_File_Index>
1122

> <PLANET_affinity>
7.06

> <i_lp_mmshare_version>
54117

> <i_f3d_flags>
0

> <s_epik_input>
W09IXVtDQEhdMVtDSDJdTihbQ0gyXVtDSDJdMSljMm5bY0hdYyhjKG4yKVtDSDNdKS1jM1tjSF1jKEMoRikoRilGKVtjSF1jKGMzNClbbkhdbltjSF00

> <s_epik_cmdline>
J2VwaWtfcHl0aG9uJywgJy1waCcsICc3LjAnLCAnLXRuJywgJzgnLCAnLW1hJywgJzUwMCcsICctaW1hZScsICc8aW5maWxlLm1hZT4nLCAnLW9tYWUnLCAnPG91dGZpbGUubWFlPic=

> <r_epik_Ionization_Penalty>
  0.0043

> <r_epik_Ionization_Penalty_Charging>
  0.0000

> <r_epik_Ionization_Penalty_Neutral>
  0.0043

> <r_epik_State_Penalty>
  0.0090

> <r_epik_Charging_Adjusted_Penalty>
0.00904526

> <i_epik_Tot_Q>
0

> <i_epik_Tot_abs_Q>
0

> <s_lp_Force_Field>
S-OPLS

> <r_lp_Energy>
19.8908

> <b_lp_Chiralities_Consistent>
1

> <s_lp_Variant>
O[C@H]1CN(C2=NC=C(C3=CC(C(F)(F)F)=CC4=C3C=NN4)C(C)=N2)CC1-1

> <s_i_glide_gridfile>
glide-grid_1

> <i_i_glide_lignum>
2594

> <i_i_glide_rotatable_bonds>
4

> <r_i_docking_score>
-7.46679761630166

> <r_i_glide_ligand_efficiency>
-0.28718452370391

> <r_i_glide_ligand_efficiency_sa>
-0.850783021456299

> <r_i_glide_ligand_efficiency_ln>
-1.75355291962711

> <r_i_glide_gscore>
-7.47579761630166

> <r_i_glide_lipo>
-2.1777570386751

> <r_i_glide_hbond>
-0.643058974847811

> <r_i_glide_metal>
0

> <r_i_glide_rewards>
-2.29780622919929

> <r_i_glide_evdw>
-29.7343120574951

> <r_i_glide_ecoul>
-7.1142954826355

> <r_i_glide_erotb>
0.203745209905619

> <r_i_glide_esite>
-0.007060658214998

> <r_i_glide_emodel>
-53.4881284567302

> <r_i_glide_energy>
-36.8486075401306

> <r_i_glide_einternal>
1.44489395618439

> <i_i_glide_confnum>
16

> <i_i_glide_posenum>
80

> <r_i_glide_eff_state_penalty>
0.009

> <r_lp_tautomer_probability>
0.980392

> <s_m_subgroup_title>
glide-dock_SP_top1262_2_pv

> <s_m_subgroupid>
glide-dock_SP_top1262_2_pv

> <b_m_subgroup_collapsed>
0

$$$$
OC(C)(C)C1=NC(C2=CC(CNC(C(C=N3)=CN=C3C4=CC=CC=N4)=O)=CC=C2)=NO1
                    3D
 Schrodinger Suite 2021-3.
  0  0  0     0  0            999 V3000
M  V30 BEGIN CTAB
M  V30 COUNTS 51 54 0 0 0
M  V30 BEGIN ATOM
M  V30 1 O  30.0830 44.0715 85.6435 0
M  V30 2 C  28.6746 43.9366 85.5406 0
M  V30 3 C  28.1179 44.0866 86.9673 0
M  V30 4 C  28.1860 45.0818 84.6333 0
M  V30 5 C  28.3098 42.5640 84.9658 0
M  V30 6 N  29.0777 41.5222 84.7752 0
M  V30 7 C  28.2325 40.6145 84.3195 0
M  V30 8 N  26.9811 41.0129 84.1993 0
M  V30 9 O  27.0136 42.3337 84.6391 0
M  V30 10 C  28.6674 39.2186 83.9631 0
M  V30 11 C  27.7228 38.2314 83.6433 0
M  V30 12 C  28.1183 36.9368 83.2796 0
M  V30 13 C  29.4792 36.6209 83.2574 0
M  V30 14 C  30.4293 37.5844 83.5880 0
M  V30 15 C  30.0266 38.8730 83.9362 0
M  V30 16 C  27.0954 35.8606 82.9335 0
M  V30 17 N  25.8347 35.9629 83.6745 0
M  V30 18 C  24.6345 35.6414 83.1649 0
M  V30 19 O  24.5047 35.1566 82.0435 0
M  V30 20 C  23.4172 35.9790 83.9877 0
M  V30 21 C  23.4648 36.3567 85.3406 0
M  V30 22 N  22.3524 36.6776 86.0540 0
M  V30 23 C  21.1723 36.6720 85.3750 0
M  V30 24 N  21.0253 36.3566 84.0602 0
M  V30 25 C  22.1450 35.9694 83.4002 0
M  V30 26 C  19.9260 36.9363 86.1464 0
M  V30 27 C  19.7039 36.3568 87.4033 0
M  V30 28 C  18.4831 36.5743 88.0435 0
M  V30 29 C  17.5272 37.3918 87.4420 0
M  V30 30 C  17.8206 37.9565 86.2013 0
M  V30 31 N  18.9901 37.7307 85.5492 0
M  V30 32 H  30.4683 43.9567 84.7526 0
M  V30 33 H  27.0292 44.0223 86.9767 0
M  V30 34 H  28.3929 45.0467 87.4057 0
M  V30 35 H  28.4980 43.3053 87.6276 0
M  V30 36 H  27.1036 45.0560 84.5007 0
M  V30 37 H  28.4413 46.0581 85.0468 0
M  V30 38 H  28.6385 45.0241 83.6435 0
M  V30 39 H  26.6701 38.4755 83.6572 0
M  V30 40 H  29.8071 35.6275 82.9836 0
M  V30 41 H  31.4799 37.3332 83.5689 0
M  V30 42 H  30.7832 39.6056 84.1792 0
M  V30 43 H  26.9296 35.9053 81.8563 0
M  V30 44 H  27.5154 34.8736 83.1355 0
M  V30 45 H  25.9085 36.1915 84.6530 0
M  V30 46 H  24.3916 36.3959 85.8933 0
M  V30 47 H  22.0077 35.6876 82.3648 0
M  V30 48 H  20.4454 35.7148 87.8553 0
M  V30 49 H  18.2767 36.1086 88.9953 0
M  V30 50 H  16.5808 37.5855 87.9274 0
M  V30 51 H  17.1050 38.6016 85.7118 0
M  V30 END ATOM
M  V30 BEGIN BOND
M  V30 1 1 1 2
M  V30 2 1 1 32
M  V30 3 1 2 3
M  V30 4 1 2 4
M  V30 5 1 2 5
M  V30 6 1 3 33
M  V30 7 1 3 34
M  V30 8 1 3 35
M  V30 9 1 4 36
M  V30 10 1 4 37
M  V30 11 1 4 38
M  V30 12 2 5 6
M  V30 13 1 5 9
M  V30 14 1 6 7
M  V30 15 2 7 8
M  V30 16 1 7 10
M  V30 17 1 8 9
M  V30 18 2 10 11
M  V30 19 1 10 15
M  V30 20 1 11 12
M  V30 21 1 11 39
M  V30 22 2 12 13
M  V30 23 1 12 16
M  V30 24 1 13 14
M  V30 25 1 13 40
M  V30 26 2 14 15
M  V30 27 1 14 41
M  V30 28 1 15 42
M  V30 29 1 16 17
M  V30 30 1 16 43
M  V30 31 1 16 44
M  V30 32 1 17 18
M  V30 33 1 17 45
M  V30 34 2 18 19
M  V30 35 1 18 20
M  V30 36 2 20 21
M  V30 37 1 20 25
M  V30 38 1 21 22
M  V30 39 1 21 46
M  V30 40 2 22 23
M  V30 41 1 23 24
M  V30 42 1 23 26
M  V30 43 2 24 25
M  V30 44 1 25 47
M  V30 45 2 26 27
M  V30 46 1 26 31
M  V30 47 1 27 28
M  V30 48 1 27 48
M  V30 49 2 28 29
M  V30 50 1 28 49
M  V30 51 1 29 30
M  V30 52 1 29 50
M  V30 53 2 30 31
M  V30 54 1 30 51
M  V30 END BOND
M  V30 END CTAB
M  END
> <s_m_entry_id>
1124

> <s_m_entry_name>
result.4250

> <s_m_Source_Path>
D:\OneDrive - zju.edu.cn\DOC\A-Finished\LCK_VS\Planet\LCK-8617

> <s_m_Source_File>
glide-dock_SP_top1262_2_pv.maegz

> <i_m_Source_File_Index>
1124

> <PLANET_affinity>
7.42

> <i_lp_mmshare_version>
54117

> <i_f3d_flags>
0

> <s_epik_input>
W09IXUMoW0NIM10pKFtDSDNdKWMxbmMobm8xKS1jMltjSF1jKFtjSF1bY0hdW2NIXTIpW0NIMl1bTkhdQyg9TyljM1tjSF1uYyhuW2NIXTMpLWM0W2NIXVtjSF1bY0hdW2NIXW40

> <s_epik_cmdline>
J2VwaWtfcHl0aG9uJywgJy1waCcsICc3LjAnLCAnLXRuJywgJzgnLCAnLW1hJywgJzUwMCcsICctaW1hZScsICc8aW5maWxlLm1hZT4nLCAnLW9tYWUnLCAnPG91dGZpbGUubWFlPic=

> <r_epik_Ionization_Penalty>
  0.0000

> <r_epik_Ionization_Penalty_Charging>
  0.0000

> <r_epik_Ionization_Penalty_Neutral>
  0.0000

> <r_epik_State_Penalty>
  0.0000

> <r_epik_Charging_Adjusted_Penalty>
0

> <i_epik_Tot_Q>
0

> <i_epik_Tot_abs_Q>
0

> <s_lp_Force_Field>
S-OPLS

> <r_lp_Energy>
44.9929

> <b_lp_Chiralities_Consistent>
1

> <s_lp_Variant>
OC(C)(C)C1=NC(C2=CC(CNC(C(C=N3)=CN=C3C4=CC=CC=N4)=O)=CC=C2)=NO1-1

> <s_i_glide_gridfile>
glide-grid_1

> <i_i_glide_lignum>
2061

> <i_i_glide_rotatable_bonds>
8

> <r_i_docking_score>
-7.46283623273701

> <r_i_glide_ligand_efficiency>
-0.240736652668936

> <r_i_glide_ligand_efficiency_sa>
-0.756245462150016

> <r_i_glide_ligand_efficiency_ln>
-1.68309827894588

> <r_i_glide_gscore>
-7.46283623273701

> <r_i_glide_lipo>
-2.71934612752525

> <r_i_glide_hbond>
-0.672955557564961

> <r_i_glide_metal>
0

> <r_i_glide_rewards>
-1.22287830561824

> <r_i_glide_evdw>
-45.0385360717773

> <r_i_glide_ecoul>
-9.27286434173584

> <r_i_glide_erotb>
0.797454208699042

> <r_i_glide_esite>
-0.00225399587836673

> <r_i_glide_emodel>
-74.809494297863

> <r_i_glide_energy>
-54.3114004135132

> <r_i_glide_einternal>
7.49892902374268

> <i_i_glide_confnum>
89

> <i_i_glide_posenum>
21

> <r_i_glide_eff_state_penalty>
0

> <r_lp_tautomer_probability>
1

> <s_m_subgroup_title>
glide-dock_SP_top1262_2_pv

> <s_m_subgroupid>
glide-dock_SP_top1262_2_pv

> <b_m_subgroup_collapsed>
0

$$$$
O=C1C2=C(N=C(NC3CCN(C)CC3)N=C2NC4=CC=C(OC5=CC=CC=C5)C=C4)C(Br)=CN1
                    3D
 Schrodinger Suite 2021-3.
  0  0  0     0  0            999 V3000
M  V30 BEGIN CTAB
M  V30 COUNTS 60 64 0 0 0
M  V30 BEGIN ATOM
M  V30 1 O  25.6795 34.6440 82.4432 0
M  V30 2 C  24.8939 35.4077 82.9946 0
M  V30 3 N  23.5588 35.1641 82.9348 0
M  V30 4 C  22.6304 35.8665 83.6439 0
M  V30 5 C  22.8980 36.9140 84.4428 0
M  V30 6 Br 21.4687 37.8493 85.4402 0
M  V30 7 C  24.2984 37.3734 84.5191 0
M  V30 8 C  25.2808 36.6466 83.8047 0
M  V30 9 N  24.5945 38.4988 85.2154 0
M  V30 10 C  25.8942 38.8791 85.2324 0
M  V30 11 N  26.3006 40.0215 85.9294 0
M  V30 12 C  25.3916 40.9257 86.6410 0 CFG=2
M  V30 13 C  24.4348 41.6584 85.6622 0
M  V30 14 C  25.1906 42.5620 84.6627 0
M  V30 15 N  26.0480 43.5843 85.4523 0 CHG=1 CFG=2
M  V30 16 C  26.8203 44.5089 84.4843 0
M  V30 17 C  27.0381 42.8940 86.4216 0
M  V30 18 C  26.2412 41.9836 87.3811 0
M  V30 19 N  26.9014 38.2183 84.6281 0
M  V30 20 C  26.6107 37.1073 83.9058 0
M  V30 21 N  27.6690 36.4534 83.2439 0
M  V30 22 C  29.0626 36.6497 83.1939 0
M  V30 23 C  29.7648 37.4957 84.0648 0
M  V30 24 C  31.1326 37.6904 83.9038 0
M  V30 25 C  31.8086 37.0418 82.8723 0
M  V30 26 C  31.1298 36.1529 82.0433 0
M  V30 27 C  29.7630 35.9557 82.2062 0
M  V30 28 O  33.1399 37.2973 82.6592 0
M  V30 29 C  33.4286 38.2025 81.6681 0
M  V30 30 C  33.8150 37.7448 80.4071 0
M  V30 31 C  34.0825 38.6589 79.3900 0
M  V30 32 C  33.9623 40.0249 79.6415 0
M  V30 33 C  33.5944 40.4852 80.9037 0
M  V30 34 C  33.3287 39.5726 81.9212 0
M  V30 35 H  23.2782 34.3500 82.4030 0
M  V30 36 H  21.6447 35.4489 83.5099 0
M  V30 37 H  27.2517 39.9630 86.2581 0
M  V30 38 H  24.8278 40.3350 87.3695 0
M  V30 39 H  23.7288 42.2656 86.2298 0
M  V30 40 H  23.8123 40.9554 85.1095 0
M  V30 41 H  25.8671 41.9930 84.0228 0
M  V30 42 H  24.5008 43.1349 84.0435 0
M  V30 43 H  27.4828 43.9001 83.8697 0
M  V30 44 H  26.0851 45.0344 83.8781 0
M  V30 45 H  27.3909 45.2177 85.0844 0
M  V30 46 H  27.7575 42.3392 85.8149 0
M  V30 47 H  27.5666 43.6827 86.9596 0
M  V30 48 H  26.9302 41.4904 88.0684 0
M  V30 49 H  25.5961 42.5931 88.0158 0
M  V30 50 H  27.3433 35.6627 82.7000 0
M  V30 51 H  29.2817 38.0183 84.8750 0
M  V30 52 H  31.6670 38.3601 84.5609 0
M  V30 53 H  31.6559 35.6472 81.2441 0
M  V30 54 H  29.2540 35.2846 81.5292 0
M  V30 55 H  33.8880 36.6831 80.2173 0
M  V30 56 H  34.3631 38.3092 78.4067 0
M  V30 57 H  34.1467 40.7328 78.8444 0
M  V30 58 H  33.5086 41.5452 81.0942 0
M  V30 59 H  33.0352 39.9244 82.8998 0
M  V30 60 H  25.4136 44.1469 86.0030 0
M  V30 END ATOM
M  V30 BEGIN BOND
M  V30 1 2 1 2
M  V30 2 1 2 3
M  V30 3 1 2 8
M  V30 4 1 3 4
M  V30 5 1 3 35
M  V30 6 2 4 5
M  V30 7 1 4 36
M  V30 8 1 5 6
M  V30 9 1 5 7
M  V30 10 2 7 8
M  V30 11 1 7 9
M  V30 12 1 8 20
M  V30 13 2 9 10
M  V30 14 1 10 11
M  V30 15 1 10 19
M  V30 16 1 11 12
M  V30 17 1 11 37
M  V30 18 1 12 13
M  V30 19 1 12 18
M  V30 20 1 12 38
M  V30 21 1 13 14
M  V30 22 1 13 39
M  V30 23 1 13 40
M  V30 24 1 14 15
M  V30 25 1 14 41
M  V30 26 1 14 42
M  V30 27 1 15 16
M  V30 28 1 15 17
M  V30 29 1 15 60
M  V30 30 1 16 43
M  V30 31 1 16 44
M  V30 32 1 16 45
M  V30 33 1 17 18
M  V30 34 1 17 46
M  V30 35 1 17 47
M  V30 36 1 18 48
M  V30 37 1 18 49
M  V30 38 2 19 20
M  V30 39 1 20 21
M  V30 40 1 21 22
M  V30 41 1 21 50
M  V30 42 2 22 23
M  V30 43 1 22 27
M  V30 44 1 23 24
M  V30 45 1 23 51
M  V30 46 2 24 25
M  V30 47 1 24 52
M  V30 48 1 25 26
M  V30 49 1 25 28
M  V30 50 2 26 27
M  V30 51 1 26 53
M  V30 52 1 27 54
M  V30 53 1 28 29
M  V30 54 2 29 30
M  V30 55 1 29 34
M  V30 56 1 30 31
M  V30 57 1 30 55
M  V30 58 2 31 32
M  V30 59 1 31 56
M  V30 60 1 32 33
M  V30 61 1 32 57
M  V30 62 2 33 34
M  V30 63 1 33 58
M  V30 64 1 34 59
M  V30 END BOND
M  V30 END CTAB
M  END
> <s_m_entry_id>
1125

> <s_m_entry_name>
result.15

> <s_m_Source_Path>
D:\OneDrive - zju.edu.cn\DOC\A-Finished\LCK_VS\Planet\LCK-8617

> <s_m_Source_File>
glide-dock_SP_top1262_2_pv.maegz

> <i_m_Source_File_Index>
1125

> <PLANET_affinity>
7.129

> <i_lp_mmshare_version>
54117

> <i_f3d_flags>
0

> <s_epik_input>
W0NIMl0xW0NIMl1OKFtDSDNdKVtDSDJdW0NIMl1bQ0hdMVtOSF1jKG4yKW5jKGMoYzIzKWMoPU8pW25IXVtjSF1jM0JyKVtOSF1jNFtjSF1bY0hdYyhbY0hdW2NIXTQpT2M1W2NIXVtjSF1bY0hdW2NIXVtjSF01

> <s_epik_cmdline>
J2VwaWtfcHl0aG9uJywgJy1waCcsICc3LjAnLCAnLXRuJywgJzgnLCAnLW1hJywgJzUwMCcsICctaW1hZScsICc8aW5maWxlLm1hZT4nLCAnLW9tYWUnLCAnPG91dGZpbGUubWFlPic=

> <r_epik_Ionization_Penalty>
  0.0032

> <r_epik_Ionization_Penalty_Charging>
  0.0031

> <r_epik_Ionization_Penalty_Neutral>
  0.0001

> <r_epik_State_Penalty>
  0.0000

> <r_epik_Charging_Adjusted_Penalty>
0.00312891

> <i_epik_Tot_Q>
1

> <i_epik_Tot_abs_Q>
1

> <s_lp_Force_Field>
S-OPLS

> <r_lp_Energy>
56.9938

> <b_lp_Chiralities_Consistent>
1

> <s_lp_Variant>
O=C1C2=C(N=C(NC3CCN(C)CC3)N=C2NC4=CC=C(OC5=CC=CC=C5)C=C4)C(Br)=CN1-2

> <s_i_glide_gridfile>
glide-grid_1

> <i_i_glide_lignum>
2491

> <i_i_glide_rotatable_bonds>
6

> <r_i_docking_score>
-7.46239637111692

> <r_i_glide_ligand_efficiency>
-0.219482246209321

> <r_i_glide_ligand_efficiency_sa>
-0.711037274154815

> <r_i_glide_ligand_efficiency_ln>
-1.64865267150803

> <r_i_glide_gscore>
-7.46239637111692

> <r_i_glide_lipo>
-2.83042295347556

> <r_i_glide_hbond>
-0.520562338244257

> <r_i_glide_metal>
0

> <r_i_glide_rewards>
-1.00616204680668

> <r_i_glide_evdw>
-42.6036911010742

> <r_i_glide_ecoul>
-8.59600925445557

> <r_i_glide_erotb>
0.316458466786887

> <r_i_glide_esite>
-0.00212155615525731

> <r_i_glide_emodel>
-75.7803600588988

> <r_i_glide_energy>
-51.1997003555298

> <r_i_glide_einternal>
5.76472806930542

> <i_i_glide_confnum>
34

> <i_i_glide_posenum>
126

> <r_i_glide_eff_state_penalty>
0

> <r_lp_tautomer_probability>
1

> <s_m_subgroup_title>
glide-dock_SP_top1262_2_pv

> <s_m_subgroupid>
glide-dock_SP_top1262_2_pv

> <b_m_subgroup_collapsed>
0

$$$$
C[C@@H](O)[C@H](OC1=NC(NC2=CC=C([S@@](=N)(C3CC3)=O)C=C2)=NC=C1C(F)(F)F)C
                    3D
 Schrodinger Suite 2021-3.
  0  0  0     0  0            999 V3000
M  V30 BEGIN CTAB
M  V30 COUNTS 50 52 0 0 0
M  V30 BEGIN ATOM
M  V30 1 C  28.0472 41.0096 84.8339 0
M  V30 2 C  28.9918 40.5001 83.7336 0 CFG=1
M  V30 3 O  29.2830 41.5566 82.8435 0
M  V30 4 C  30.3035 39.8387 84.2449 0 CFG=1
M  V30 5 C  31.1108 40.6888 85.2418 0
M  V30 6 O  30.0391 38.5799 84.8707 0
M  V30 7 C  29.7843 37.5366 84.0145 0
M  V30 8 N  28.4691 37.2203 83.8951 0
M  V30 9 C  28.1561 36.2249 83.0311 0
M  V30 10 N  29.0534 35.5301 82.2953 0
M  V30 11 C  30.3613 35.8457 82.4474 0
M  V30 12 C  30.7936 36.8535 83.3145 0
M  V30 13 C  32.2825 37.1282 83.5065 0
M  V30 14 F  32.5533 37.5566 84.7393 0
M  V30 15 F  32.9977 36.0221 83.2966 0
M  V30 16 F  32.6757 38.0524 82.6313 0
M  V30 17 N  26.8282 35.8254 82.8434 0
M  V30 18 C  25.6065 36.1071 83.4800 0
M  V30 19 C  24.4545 35.5567 82.9140 0
M  V30 20 C  23.2089 35.7501 83.5052 0
M  V30 21 C  23.1060 36.5127 84.6694 0
M  V30 22 C  24.2511 37.0673 85.2444 0
M  V30 23 C  25.4960 36.8639 84.6530 0
M  V30 24 S  21.5008 36.7544 85.4321 0 CFG=1
M  V30 25 O  20.4590 36.3568 84.4780 0
M  V30 26 N  21.6874 36.1012 86.8023 0
M  V30 27 C  21.3597 38.5959 85.8610 0
M  V30 28 C  20.5423 39.4626 84.9313 0
M  V30 29 C  19.9926 39.0831 86.2893 0
M  V30 30 H  27.7862 40.2057 85.5232 0
M  V30 31 H  27.1184 41.3920 84.4091 0
M  V30 32 H  28.4978 41.8143 85.4161 0
M  V30 33 H  28.4418 39.7746 83.1341 0
M  V30 34 H  29.9333 42.1591 83.2436 0
M  V30 35 H  30.9481 39.6801 83.3782 0
M  V30 36 H  31.3237 41.6818 84.8444 0
M  V30 37 H  30.5811 40.8084 86.1870 0
M  V30 38 H  32.0669 40.2155 85.4660 0
M  V30 39 H  31.0576 35.2620 81.8591 0
M  V30 40 H  26.7730 35.1351 82.1117 0
M  V30 41 H  24.5118 34.9643 82.0152 0
M  V30 42 H  22.3328 35.3027 83.0560 0
M  V30 43 H  24.1833 37.6398 86.1575 0
M  V30 44 H  26.3611 37.2882 85.1355 0
M  V30 45 H  20.8796 36.2216 87.3936 0
M  V30 46 H  22.2516 38.9760 86.3572 0
M  V30 47 H  20.8654 40.4900 84.7562 0
M  V30 48 H  20.1033 39.0094 84.0435 0
M  V30 49 H  19.1705 38.3679 86.3466 0
M  V30 50 H  19.9264 39.8488 87.0630 0
M  V30 END ATOM
M  V30 BEGIN BOND
M  V30 1 1 1 2
M  V30 2 1 1 30
M  V30 3 1 1 31
M  V30 4 1 1 32
M  V30 5 1 2 3
M  V30 6 1 2 4
M  V30 7 1 2 33
M  V30 8 1 3 34
M  V30 9 1 4 5
M  V30 10 1 4 6
M  V30 11 1 4 35
M  V30 12 1 5 36
M  V30 13 1 5 37
M  V30 14 1 5 38
M  V30 15 1 6 7
M  V30 16 2 7 8
M  V30 17 1 7 12
M  V30 18 1 8 9
M  V30 19 2 9 10
M  V30 20 1 9 17
M  V30 21 1 10 11
M  V30 22 2 11 12
M  V30 23 1 11 39
M  V30 24 1 12 13
M  V30 25 1 13 14
M  V30 26 1 13 15
M  V30 27 1 13 16
M  V30 28 1 17 18
M  V30 29 1 17 40
M  V30 30 2 18 19
M  V30 31 1 18 23
M  V30 32 1 19 20
M  V30 33 1 19 41
M  V30 34 2 20 21
M  V30 35 1 20 42
M  V30 36 1 21 22
M  V30 37 1 21 24
M  V30 38 2 22 23
M  V30 39 1 22 43
M  V30 40 1 23 44
M  V30 41 2 24 25
M  V30 42 2 24 26
M  V30 43 1 24 27
M  V30 44 1 26 45
M  V30 45 1 27 28
M  V30 46 1 27 29
M  V30 47 1 27 46
M  V30 48 1 28 29
M  V30 49 1 28 47
M  V30 50 1 28 48
M  V30 51 1 29 49
M  V30 52 1 29 50
M  V30 END BOND
M  V30 END CTAB
M  END
> <s_m_entry_id>
1128

> <s_m_entry_name>
result.8557

> <s_m_Source_Path>
D:\OneDrive - zju.edu.cn\DOC\A-Finished\LCK_VS\Planet\LCK-8617

> <s_m_Source_File>
glide-dock_SP_top1262_2_pv.maegz

> <i_m_Source_File_Index>
1128

> <PLANET_affinity>
8.433

> <i_lp_mmshare_version>
54117

> <i_f3d_flags>
0

> <s_epik_input>
W0NIM11bQ0BASF0oW09IXSlbQ0BASF0oW0NIM10pT2MxbmMobltjSF1jMUMoRikoRilGKVtOSF1jMltjSF1bY0hdYyhbY0hdW2NIXTIpW1NAQF0oPU8pKD1bTkhdKVtDSF0zW0NIMl1bQ0gyXTM=

> <s_epik_cmdline>
J2VwaWtfcHl0aG9uJywgJy1waCcsICc3LjAnLCAnLXRuJywgJzgnLCAnLW1hJywgJzUwMCcsICctaW1hZScsICc8aW5maWxlLm1hZT4nLCAnLW9tYWUnLCAnPG91dGZpbGUubWFlPic=

> <r_epik_Ionization_Penalty>
  0.0002

> <r_epik_Ionization_Penalty_Charging>
  0.0000

> <r_epik_Ionization_Penalty_Neutral>
  0.0002

> <r_epik_State_Penalty>
  0.0000

> <r_epik_Charging_Adjusted_Penalty>
0

> <i_epik_Tot_Q>
0

> <i_epik_Tot_abs_Q>
0

> <s_lp_Force_Field>
S-OPLS

> <r_lp_Energy>
21.2872

> <b_lp_Chiralities_Consistent>
1

> <s_lp_Variant>
C[C@@H](O)[C@H](OC1=NC(NC2=CC=C([S@@](=N)(C3CC3)=O)C=C2)=NC=C1C(F)(F)F)C-1

> <s_i_glide_gridfile>
glide-grid_1

> <i_i_glide_lignum>
867

> <i_i_glide_rotatable_bonds>
9

> <r_i_docking_score>
-7.45673022919213

> <r_i_glide_ligand_efficiency>
-0.257128628592832

> <r_i_glide_ligand_efficiency_sa>
-0.789980611104586

> <r_i_glide_ligand_efficiency_ln>
-1.7074021361212

> <r_i_glide_gscore>
-7.45673022919213

> <r_i_glide_lipo>
-2.53830694843518

> <r_i_glide_hbond>
-1.10076014621386

> <r_i_glide_metal>
0

> <r_i_glide_rewards>
-1.05261165441075

> <r_i_glide_evdw>
-39.9030303955078

> <r_i_glide_ecoul>
-10.1400842666626

> <r_i_glide_erotb>
0.751112679642449

> <r_i_glide_esite>
0

> <r_i_glide_emodel>
-65.4158583167724

> <r_i_glide_energy>
-50.0431146621704

> <r_i_glide_einternal>
15.9106044769287

> <i_i_glide_confnum>
196

> <i_i_glide_posenum>
55

> <r_i_glide_eff_state_penalty>
0

> <r_lp_tautomer_probability>
1

> <s_m_subgroup_title>
glide-dock_SP_top1262_2_pv

> <s_m_subgroupid>
glide-dock_SP_top1262_2_pv

> <b_m_subgroup_collapsed>
0

$$$$
O[C@H]([C@H]([C@@H]([C@@H](COC(/C=C/C1=CC(OC)=C(O)C(OC)=C1)=O)O2)O)O)[C@H]2O[...
                    3D
 Schrodinger Suite 2021-3.
  0  0  0     0  0            999 V3000
M  V30 BEGIN CTAB
M  V30 COUNTS 95 98 0 0 0
M  V30 BEGIN ATOM
M  V30 1 C  29.9459 36.4207 82.6711 0
M  V30 2 O  28.5913 36.0519 82.4385 0
M  V30 3 C  27.5886 36.5617 83.2439 0
M  V30 4 C  27.8050 37.5026 84.2624 0
M  V30 5 C  26.2924 36.0737 83.0415 0
M  V30 6 O  26.0830 35.1593 82.0439 0
M  V30 7 C  25.2241 36.4926 83.8406 0
M  V30 8 O  23.9757 35.9537 83.5760 0
M  V30 9 C  22.8659 36.2948 84.3962 0
M  V30 10 C  25.4698 37.4289 84.8573 0
M  V30 11 C  26.7589 37.9320 85.0813 0
M  V30 12 C  27.0710 38.8444 86.1984 0
M  V30 13 C  26.2818 39.0779 87.2668 0
M  V30 14 C  26.6776 39.9443 88.3580 0
M  V30 15 O  27.7456 40.5575 88.3982 0
M  V30 16 O  25.7511 39.9565 89.3280 0
M  V30 17 C  26.0045 40.5347 90.6034 0
M  V30 18 C  24.8490 41.4453 91.0565 0 CFG=2
M  V30 19 C  24.9480 41.7272 92.5779 0 CFG=1
M  V30 20 O  26.1082 42.4915 92.8601 0
M  V30 21 C  23.6812 42.4153 93.1322 0 CFG=2
M  V30 22 O  23.6828 42.4240 94.5559 0
M  V30 23 C  22.4076 41.7399 92.5766 0 CFG=1
M  V30 24 O  21.2035 42.3349 93.0259 0
M  V30 25 O  23.5894 40.8578 90.6913 0
M  V30 26 C  22.4772 41.6330 91.0460 0 CFG=2
M  V30 27 O  22.5451 42.9187 90.4659 0
M  V30 28 C  21.5393 43.3408 89.5567 0 CFG=1
M  V30 29 C  20.7864 44.4616 90.2933 0
M  V30 30 O  19.5900 44.8641 89.6436 0
M  V30 31 C  22.1922 43.8026 88.2388 0 CFG=2
M  V30 32 C  22.0753 42.5612 87.3738 0 CFG=2
M  V30 33 O  22.0830 42.8800 85.9939 0
M  V30 34 C  20.7694 41.9235 87.8398 0 CFG=2
M  V30 35 O  20.6011 42.3563 89.1879 0
M  V30 36 C  20.6820 40.3886 87.6990 0
M  V30 37 O  21.6830 39.7066 88.4347 0
M  V30 38 O  23.5755 44.1586 88.3154 0
M  V30 39 C  23.9839 45.4426 88.3990 0
M  V30 40 O  23.2595 46.3817 88.7280 0
M  V30 41 C  25.3728 45.6529 87.9952 0
M  V30 42 C  26.2393 44.6633 87.6762 0
M  V30 43 C  27.6064 44.8596 87.1507 0
M  V30 44 C  27.9328 45.9671 86.3602 0
M  V30 45 C  29.2259 46.1306 85.8384 0
M  V30 46 O  29.5963 47.1946 85.0307 0
M  V30 47 C  28.6040 48.1036 84.5687 0
M  V30 48 C  30.2059 45.1776 86.1477 0
M  V30 49 O  31.4776 45.3287 85.6435 0
M  V30 50 C  29.9026 44.0593 86.9423 0
M  V30 51 C  28.5938 43.9118 87.4318 0
M  V30 52 O  30.9235 43.1536 87.1940 0
M  V30 53 C  30.6194 41.8935 87.7797 0
M  V30 54 H  30.5791 35.8969 81.9551 0
M  V30 55 H  30.1048 37.4914 82.5329 0
M  V30 56 H  30.2710 36.1344 83.6728 0
M  V30 57 H  28.7986 37.8818 84.4481 0
M  V30 58 H  26.8429 35.1527 81.4405 0
M  V30 59 H  21.9906 35.7426 84.0533 0
M  V30 60 H  22.6320 37.3593 84.3290 0
M  V30 61 H  23.0374 36.0262 85.4389 0
M  V30 62 H  24.6577 37.7644 85.4785 0
M  V30 63 H  28.0264 39.3513 86.1324 0
M  V30 64 H  25.3204 38.5995 87.3666 0
M  V30 65 H  26.1295 39.7120 91.3104 0
M  V30 66 H  26.9323 41.1106 90.6262 0
M  V30 67 H  24.9502 42.3838 90.5054 0
M  V30 68 H  25.0644 40.7722 93.0935 0
M  V30 69 H  26.1796 42.5981 93.8109 0
M  V30 70 H  23.6835 43.4614 92.8143 0
M  V30 71 H  23.6717 41.5128 94.8689 0
M  V30 72 H  22.3656 40.7149 92.9487 0
M  V30 73 H  21.4013 43.2307 93.3187 0
M  V30 74 H  21.6756 41.0154 90.6604 0
M  V30 75 H  20.5148 44.1188 91.2899 0
M  V30 76 H  21.4491 45.3197 90.4113 0
M  V30 77 H  19.6839 44.8454 88.6772 0
M  V30 78 H  21.6093 44.6254 87.8160 0
M  V30 79 H  22.9078 41.8940 87.6028 0
M  V30 80 H  21.4880 43.6253 85.8376 0
M  V30 81 H  19.9365 42.3448 87.2786 0
M  V30 82 H  19.7071 40.0430 88.0423 0
M  V30 83 H  20.7676 40.1079 86.6483 0
M  V30 84 H  22.5470 39.9617 88.1010 0
M  V30 85 H  25.6767 46.6877 87.9362 0
M  V30 86 H  25.9263 43.6291 87.7572 0
M  V30 87 H  27.1609 46.6848 86.1340 0
M  V30 88 H  29.0652 48.8298 83.8986 0
M  V30 89 H  27.8193 47.5913 84.0068 0
M  V30 90 H  28.1518 48.6580 85.3936 0
M  V30 91 H  31.4766 45.3293 84.6723 0
M  V30 92 H  28.3347 43.0624 88.0438 0
M  V30 93 H  31.5306 41.3044 87.8593 0
M  V30 94 H  30.2097 41.9999 88.7847 0
M  V30 95 H  29.9216 41.3327 87.1588 0
M  V30 END ATOM
M  V30 BEGIN BOND
M  V30 1 1 1 2
M  V30 2 1 1 54
M  V30 3 1 1 55
M  V30 4 1 1 56
M  V30 5 1 2 3
M  V30 6 2 3 4
M  V30 7 1 3 5
M  V30 8 1 4 11
M  V30 9 1 4 57
M  V30 10 1 5 6
M  V30 11 2 5 7
M  V30 12 1 6 58
M  V30 13 1 7 8
M  V30 14 1 7 10
M  V30 15 1 8 9
M  V30 16 1 9 59
M  V30 17 1 9 60
M  V30 18 1 9 61
M  V30 19 2 10 11
M  V30 20 1 10 62
M  V30 21 1 11 12
M  V30 22 2 12 13
M  V30 23 1 12 63
M  V30 24 1 13 14
M  V30 25 1 13 64
M  V30 26 2 14 15
M  V30 27 1 14 16
M  V30 28 1 16 17
M  V30 29 1 17 18
M  V30 30 1 17 65
M  V30 31 1 17 66
M  V30 32 1 18 19
M  V30 33 1 18 25
M  V30 34 1 18 67
M  V30 35 1 19 20
M  V30 36 1 19 21
M  V30 37 1 19 68
M  V30 38 1 20 69
M  V30 39 1 21 22
M  V30 40 1 21 23
M  V30 41 1 21 70
M  V30 42 1 22 71
M  V30 43 1 23 24
M  V30 44 1 23 26
M  V30 45 1 23 72
M  V30 46 1 24 73
M  V30 47 1 25 26
M  V30 48 1 26 27
M  V30 49 1 26 74
M  V30 50 1 27 28
M  V30 51 1 28 29
M  V30 52 1 28 31
M  V30 53 1 28 35
M  V30 54 1 29 30
M  V30 55 1 29 75
M  V30 56 1 29 76
M  V30 57 1 30 77
M  V30 58 1 31 32
M  V30 59 1 31 38
M  V30 60 1 31 78
M  V30 61 1 32 33
M  V30 62 1 32 34
M  V30 63 1 32 79
M  V30 64 1 33 80
M  V30 65 1 34 35
M  V30 66 1 34 36
M  V30 67 1 34 81
M  V30 68 1 36 37
M  V30 69 1 36 82
M  V30 70 1 36 83
M  V30 71 1 37 84
M  V30 72 1 38 39
M  V30 73 2 39 40
M  V30 74 1 39 41
M  V30 75 2 41 42
M  V30 76 1 41 85
M  V30 77 1 42 43
M  V30 78 1 42 86
M  V30 79 2 43 44
M  V30 80 1 43 51
M  V30 81 1 44 45
M  V30 82 1 44 87
M  V30 83 1 45 46
M  V30 84 2 45 48
M  V30 85 1 46 47
M  V30 86 1 47 88
M  V30 87 1 47 89
M  V30 88 1 47 90
M  V30 89 1 48 49
M  V30 90 1 48 50
M  V30 91 1 49 91
M  V30 92 2 50 51
M  V30 93 1 50 52
M  V30 94 1 51 92
M  V30 95 1 52 53
M  V30 96 1 53 93
M  V30 97 1 53 94
M  V30 98 1 53 95
M  V30 END BOND
M  V30 END CTAB
M  END
> <s_m_entry_id>
1138

> <s_m_entry_name>
result.5902

> <s_m_Source_Path>
D:\OneDrive - zju.edu.cn\DOC\A-Finished\LCK_VS\Planet\LCK-8617

> <s_m_Source_File>
glide-dock_SP_top1262_2_pv.maegz

> <i_m_Source_File_Index>
1138

> <PLANET_affinity>
7.235

> <i_lp_mmshare_version>
54117

> <i_f3d_flags>
0

> <s_epik_input>
W0NIM11PYzFbY0hdYyhbY0hdYyhjMVtPSF0pT1tDSDNdKS9bQ0hdPVtDSF0vQyg9TylPW0NIMl1bQ0BASF0yW0NAQEhdKFtPSF0pW0NASF0oW09IXSlbQ0BASF0oW09IXSlbQ0BIXShPMilPW0NAQF0zKFtDSDJdW09IXSlbQ0BIXShbQ0BIXShbT0hdKVtDQEhdKE8zKVtDSDJdW09IXSlPQyg9TykvW0NIXT1bQ0hdL2M0W2NIXWMoT1tDSDNdKWMoW09IXSljKFtjSF00KU9bQ0gzXQ==

> <s_epik_cmdline>
J2VwaWtfcHl0aG9uJywgJy1waCcsICc3LjAnLCAnLXRuJywgJzgnLCAnLW1hJywgJzUwMCcsICctaW1hZScsICc8aW5maWxlLm1hZT4nLCAnLW9tYWUnLCAnPG91dGZpbGUubWFlPic=

> <r_epik_Ionization_Penalty>
  0.0020

> <r_epik_Ionization_Penalty_Charging>
  0.0000

> <r_epik_Ionization_Penalty_Neutral>
  0.0020

> <r_epik_State_Penalty>
  0.0000

> <r_epik_Charging_Adjusted_Penalty>
0

> <i_epik_Tot_Q>
0

> <i_epik_Tot_abs_Q>
0

> <s_epik_Chemistry_Notes>
This compound has an ester and may undergo hydrolysis at high or low pH. This compound contains an acetal/aminal-like group ( X-CH(R)-Y where X, Y are N, S, or O) that may be acid/base labile, releasing an aldehyde.

> <s_lp_Force_Field>
S-OPLS

> <r_lp_Energy>
50.2496

> <b_lp_Chiralities_Consistent>
1

> <s_lp_Variant>
O[C@H]([C@H]([C@@H]([C@@H](COC(/C=C/C1=CC(OC)=C(O)C(OC)=C1)=O)O2)O)O)[C@H]2O[...-1

> <s_i_glide_gridfile>
glide-grid_1

> <i_i_glide_lignum>
2335

> <i_i_glide_rotatable_bonds>
25

> <r_i_docking_score>
-7.45033999831685

> <r_i_glide_ligand_efficiency>
-0.140572452798431

> <r_i_glide_ligand_efficiency_sa>
-0.528030301183849

> <r_i_glide_ligand_efficiency_ln>
-1.49897433146785

> <r_i_glide_gscore>
-7.45033999831685

> <r_i_glide_lipo>
-2.38584749924325

> <r_i_glide_hbond>
-0.0637671930306895

> <r_i_glide_metal>
0

> <r_i_glide_rewards>
-0.649410134904984

> <r_i_glide_evdw>
-47.9364929199219

> <r_i_glide_ecoul>
-14.5886487960815

> <r_i_glide_erotb>
0.300307136760837

> <r_i_glide_esite>
-0.0665003424904363

> <r_i_glide_emodel>
-82.9652595802571

> <r_i_glide_energy>
-62.5251417160034

> <r_i_glide_einternal>
20.855016708374

> <i_i_glide_confnum>
585

> <i_i_glide_posenum>
196

> <r_i_glide_eff_state_penalty>
0

> <r_lp_tautomer_probability>
1

> <s_m_subgroup_title>
glide-dock_SP_top1262_2_pv

> <s_m_subgroupid>
glide-dock_SP_top1262_2_pv

> <b_m_subgroup_collapsed>
0

$$$$
NC1=NC=C(C2=CC=NC(NC3=CC=NC=C3)=N2)C(CC4CC4)=N1
                    3D
 Schrodinger Suite 2021-3.
  0  0  0     0  0            999 V3000
M  V30 BEGIN CTAB
M  V30 COUNTS 42 45 0 0 0
M  V30 BEGIN ATOM
M  V30 1 C  21.3462 36.6136 86.6494 0
M  V30 2 C  20.7104 37.8591 87.2396 0
M  V30 3 C  21.1065 37.8310 85.7808 0
M  V30 4 C  22.2684 38.7045 85.2318 0
M  V30 5 C  23.5685 38.6989 86.0408 0
M  V30 6 N  23.5507 39.5786 87.0803 0
M  V30 7 C  24.7066 37.9093 85.7361 0
M  V30 8 C  25.8008 38.0994 86.6026 0
M  V30 9 N  25.8058 38.9650 87.6450 0
M  V30 10 C  24.6713 39.6730 87.8283 0
M  V30 11 N  24.6584 40.5880 88.8706 0
M  V30 12 C  24.8322 36.9593 84.5795 0
M  V30 13 C  23.7831 36.1830 84.0659 0
M  V30 14 C  24.0602 35.3572 82.9756 0
M  V30 15 N  25.3028 35.2489 82.4437 0
M  V30 16 C  26.2760 36.0014 83.0126 0
M  V30 17 N  26.0835 36.8547 84.0492 0
M  V30 18 N  27.5615 35.8023 82.4958 0
M  V30 19 C  28.8373 36.2734 82.8438 0
M  V30 20 C  29.9339 35.6048 82.2922 0
M  V30 21 C  31.2337 36.0160 82.5923 0
M  V30 22 N  31.4159 37.0630 83.4210 0 CHG=1
M  V30 23 C  30.3953 37.7450 83.9794 0
M  V30 24 C  29.0799 37.3627 83.6973 0
M  V30 25 H  22.3634 36.3516 86.9428 0
M  V30 26 H  20.7281 35.7296 86.4875 0
M  V30 27 H  19.6474 37.8470 87.4841 0
M  V30 28 H  21.2824 38.4669 87.9401 0
M  V30 29 H  20.2835 37.7840 85.0659 0
M  V30 30 H  22.4755 38.4490 84.1945 0
M  V30 31 H  21.9089 39.7332 85.1626 0
M  V30 32 H  26.7241 37.5566 86.4664 0
M  V30 33 H  23.8702 41.2125 88.9488 0
M  V30 34 H  25.5134 40.7510 89.3792 0
M  V30 35 H  22.7895 36.2036 84.4770 0
M  V30 36 H  23.2839 34.7566 82.5254 0
M  V30 37 H  27.5719 35.1568 81.7167 0
M  V30 38 H  29.7827 34.7564 81.6433 0
M  V30 39 H  32.1255 35.5420 82.2031 0
M  V30 40 H  30.6668 38.5698 84.6251 0
M  V30 41 H  28.2753 37.9288 84.1363 0
M  V30 42 H  32.3625 37.3486 83.6342 0
M  V30 END ATOM
M  V30 BEGIN BOND
M  V30 1 1 1 2
M  V30 2 1 1 3
M  V30 3 1 1 25
M  V30 4 1 1 26
M  V30 5 1 2 3
M  V30 6 1 2 27
M  V30 7 1 2 28
M  V30 8 1 3 4
M  V30 9 1 3 29
M  V30 10 1 4 5
M  V30 11 1 4 30
M  V30 12 1 4 31
M  V30 13 2 5 6
M  V30 14 1 5 7
M  V30 15 1 6 10
M  V30 16 2 7 8
M  V30 17 1 7 12
M  V30 18 1 8 9
M  V30 19 1 8 32
M  V30 20 2 9 10
M  V30 21 1 10 11
M  V30 22 1 11 33
M  V30 23 1 11 34
M  V30 24 2 12 13
M  V30 25 1 12 17
M  V30 26 1 13 14
M  V30 27 1 13 35
M  V30 28 2 14 15
M  V30 29 1 14 36
M  V30 30 1 15 16
M  V30 31 2 16 17
M  V30 32 1 16 18
M  V30 33 1 18 19
M  V30 34 1 18 37
M  V30 35 2 19 20
M  V30 36 1 19 24
M  V30 37 1 20 21
M  V30 38 1 20 38
M  V30 39 2 21 22
M  V30 40 1 21 39
M  V30 41 1 22 23
M  V30 42 1 22 42
M  V30 43 2 23 24
M  V30 44 1 23 40
M  V30 45 1 24 41
M  V30 END BOND
M  V30 END CTAB
M  END
> <s_m_entry_id>
1142

> <s_m_entry_name>
result.2668

> <s_m_Source_Path>
D:\OneDrive - zju.edu.cn\DOC\A-Finished\LCK_VS\Planet\LCK-8617

> <s_m_Source_File>
glide-dock_SP_top1262_2_pv.maegz

> <i_m_Source_File_Index>
1142

> <PLANET_affinity>
7.127

> <i_lp_mmshare_version>
54117

> <i_f3d_flags>
0

> <s_epik_input>
W0NIMl0xW0NIMl1bQ0hdMVtDSDJdYzJuYyhbTkgyXSluW2NIXWMyLWMzW2NIXVtjSF1uYyhuMylbTkhdYzRbY0hdW2NIXW5bY0hdW2NIXTQ=

> <s_epik_cmdline>
J2VwaWtfcHl0aG9uJywgJy1waCcsICc3LjAnLCAnLXRuJywgJzgnLCAnLW1hJywgJzUwMCcsICctaW1hZScsICc8aW5maWxlLm1hZT4nLCAnLW9tYWUnLCAnPG91dGZpbGUubWFlPic=

> <r_epik_Ionization_Penalty>
  0.2873

> <r_epik_Ionization_Penalty_Charging>
  0.2872

> <r_epik_Ionization_Penalty_Neutral>
  0.0001

> <r_epik_State_Penalty>
  0.2801

> <r_epik_Charging_Adjusted_Penalty>
0.567254

> <i_epik_Tot_Q>
1

> <i_epik_Tot_abs_Q>
1

> <s_lp_Force_Field>
S-OPLS

> <r_lp_Energy>
47.4727

> <b_lp_Chiralities_Consistent>
1

> <s_lp_Variant>
NC1=NC=C(C2=CC=NC(NC3=CC=NC=C3)=N2)C(CC4CC4)=N1-1

> <s_i_glide_gridfile>
glide-grid_1

> <i_i_glide_lignum>
2495

> <i_i_glide_rotatable_bonds>
5

> <r_i_docking_score>
-7.44852148710173

> <r_i_glide_ligand_efficiency>
-0.310355061962572

> <r_i_glide_ligand_efficiency_sa>
-0.895218908568146

> <r_i_glide_ligand_efficiency_ln>
-1.78277298224313

> <r_i_glide_gscore>
-7.72862148710173

> <r_i_glide_lipo>
-2.4717929595469

> <r_i_glide_hbond>
-0.514656694383547

> <r_i_glide_metal>
0

> <r_i_glide_rewards>
-2.6435987509361

> <r_i_glide_evdw>
-34.9778709411621

> <r_i_glide_ecoul>
-6.37171506881714

> <r_i_glide_erotb>
0.636717027422626

> <r_i_glide_esite>
-0.030639302277128

> <r_i_glide_emodel>
-62.5831828115506

> <r_i_glide_energy>
-41.3495860099792

> <r_i_glide_einternal>
4.21125555038452

> <i_i_glide_confnum>
54

> <i_i_glide_posenum>
365

> <r_i_glide_eff_state_penalty>
0.2801

> <r_lp_tautomer_probability>
1

> <s_m_subgroup_title>
glide-dock_SP_top1262_2_pv

> <s_m_subgroupid>
glide-dock_SP_top1262_2_pv

> <b_m_subgroup_collapsed>
0

$$$$
ClC1=C(OC2=CC=C(NC(C3=CNC=C(C4=CC=C(F)C=C4)C3=O)=O)C=C2F)C=CN=C1N
                    3D
 Schrodinger Suite 2021-3.
  0  0  0     0  0            999 V3000
M  V30 BEGIN CTAB
M  V30 COUNTS 48 51 0 0 0
M  V30 BEGIN ATOM
M  V30 1 N  20.0802 41.0240 86.6883 0
M  V30 2 C  19.7515 39.6714 86.6531 0
M  V30 3 N  18.8848 39.2543 87.6053 0
M  V30 4 C  18.5554 37.9431 87.6436 0
M  V30 5 C  19.1215 37.0042 86.7894 0
M  V30 6 C  20.0114 37.4303 85.8005 0
M  V30 7 C  20.3027 38.8066 85.6956 0
M  V30 8 Cl 21.3243 39.4326 84.4387 0
M  V30 9 O  20.5512 36.4577 84.9827 0
M  V30 10 C  21.9194 36.3775 84.7841 0
M  V30 11 C  22.3627 35.8930 83.5525 0
M  V30 12 C  23.7213 35.8557 83.2446 0
M  V30 13 C  24.6610 36.3211 84.1753 0
M  V30 14 C  24.2273 36.7539 85.4297 0
M  V30 15 C  22.8712 36.7562 85.7481 0
M  V30 16 F  22.4830 37.1611 86.9817 0
M  V30 17 N  26.0269 36.4526 83.8962 0
M  V30 18 C  26.7987 35.7361 83.0524 0
M  V30 19 O  26.3563 34.7574 82.4436 0
M  V30 20 C  28.2030 36.1649 82.9608 0
M  V30 21 C  29.0510 35.3913 82.2256 0
M  V30 22 N  30.3829 35.6654 82.0436 0
M  V30 23 C  30.9555 36.7492 82.6557 0
M  V30 24 C  30.2536 37.5942 83.4511 0
M  V30 25 C  28.7788 37.3900 83.6478 0
M  V30 26 O  28.1030 38.1706 84.3222 0
M  V30 27 C  30.9303 38.7800 84.0376 0
M  V30 28 C  31.6606 39.6569 83.2240 0
M  V30 29 C  32.3224 40.7477 83.7806 0
M  V30 30 C  32.2623 40.9662 85.1549 0
M  V30 31 F  32.9129 42.0191 85.6973 0
M  V30 32 C  31.5392 40.1046 85.9738 0
M  V30 33 C  30.8753 39.0159 85.4168 0
M  V30 34 H  20.6418 41.4014 85.9411 0
M  V30 35 H  19.4997 41.6390 87.2442 0
M  V30 36 H  17.8544 37.6511 88.4149 0
M  V30 37 H  18.8833 35.9586 86.8906 0
M  V30 38 H  21.6473 35.5654 82.8126 0
M  V30 39 H  24.0200 35.5227 82.2635 0
M  V30 40 H  24.9391 37.1054 86.1662 0
M  V30 41 H  26.5178 37.1751 84.4104 0
M  V30 42 H  28.7276 34.5003 81.7008 0
M  V30 43 H  30.9141 35.1171 81.3753 0
M  V30 44 H  32.0119 36.8809 82.4538 0
M  V30 45 H  31.7140 39.4971 82.1558 0
M  V30 46 H  32.8738 41.4318 83.1528 0
M  V30 47 H  31.4995 40.2785 87.0390 0
M  V30 48 H  30.3204 38.3559 86.0674 0
M  V30 END ATOM
M  V30 BEGIN BOND
M  V30 1 1 1 2
M  V30 2 1 1 34
M  V30 3 1 1 35
M  V30 4 2 2 3
M  V30 5 1 2 7
M  V30 6 1 3 4
M  V30 7 2 4 5
M  V30 8 1 4 36
M  V30 9 1 5 6
M  V30 10 1 5 37
M  V30 11 2 6 7
M  V30 12 1 6 9
M  V30 13 1 7 8
M  V30 14 1 9 10
M  V30 15 2 10 11
M  V30 16 1 10 15
M  V30 17 1 11 12
M  V30 18 1 11 38
M  V30 19 2 12 13
M  V30 20 1 12 39
M  V30 21 1 13 14
M  V30 22 1 13 17
M  V30 23 2 14 15
M  V30 24 1 14 40
M  V30 25 1 15 16
M  V30 26 1 17 18
M  V30 27 1 17 41
M  V30 28 2 18 19
M  V30 29 1 18 20
M  V30 30 2 20 21
M  V30 31 1 20 25
M  V30 32 1 21 22
M  V30 33 1 21 42
M  V30 34 1 22 23
M  V30 35 1 22 43
M  V30 36 2 23 24
M  V30 37 1 23 44
M  V30 38 1 24 25
M  V30 39 1 24 27
M  V30 40 2 25 26
M  V30 41 2 27 28
M  V30 42 1 27 33
M  V30 43 1 28 29
M  V30 44 1 28 45
M  V30 45 2 29 30
M  V30 46 1 29 46
M  V30 47 1 30 31
M  V30 48 1 30 32
M  V30 49 2 32 33
M  V30 50 1 32 47
M  V30 51 1 33 48
M  V30 END BOND
M  V30 END CTAB
M  END
> <s_m_entry_id>
1143

> <s_m_entry_name>
result.792

> <s_m_Source_Path>
D:\OneDrive - zju.edu.cn\DOC\A-Finished\LCK_VS\Planet\LCK-8617

> <s_m_Source_File>
glide-dock_SP_top1262_2_pv.maegz

> <i_m_Source_File_Index>
1143

> <PLANET_affinity>
7.863

> <i_lp_mmshare_version>
54117

> <i_f3d_flags>
0

> <s_epik_input>
W05IMl1jMW5bY0hdW2NIXWMoYzFDbClPYzJbY0hdW2NIXWMoW2NIXWMyRilbTkhdQyg9TyljM1tjSF1bbkhdW2NIXWMoYzM9TyktYzRbY0hdW2NIXWMoRilbY0hdW2NIXTQ=

> <s_epik_cmdline>
J2VwaWtfcHl0aG9uJywgJy1waCcsICc3LjAnLCAnLXRuJywgJzgnLCAnLW1hJywgJzUwMCcsICctaW1hZScsICc8aW5maWxlLm1hZT4nLCAnLW9tYWUnLCAnPG91dGZpbGUubWFlPic=

> <r_epik_Ionization_Penalty>
  0.0038

> <r_epik_Ionization_Penalty_Charging>
  0.0011

> <r_epik_Ionization_Penalty_Neutral>
  0.0027

> <r_epik_State_Penalty>
  0.0000

> <r_epik_Charging_Adjusted_Penalty>
0.00108489

> <i_epik_Tot_Q>
0

> <i_epik_Tot_abs_Q>
0

> <s_lp_Force_Field>
S-OPLS

> <r_lp_Energy>
59.6809

> <b_lp_Chiralities_Consistent>
1

> <s_lp_Variant>
ClC1=C(OC2=CC=C(NC(C3=CNC=C(C4=CC=C(F)C=C4)C3=O)=O)C=C2F)C=CN=C1N-1

> <s_i_glide_gridfile>
glide-grid_1

> <i_i_glide_lignum>
1436

> <i_i_glide_rotatable_bonds>
6

> <r_i_docking_score>
-7.44846823583417

> <r_i_glide_ligand_efficiency>
-0.225711158661642

> <r_i_glide_ligand_efficiency_sa>
-0.723976289226554

> <r_i_glide_ligand_efficiency_ln>
-1.65650076954501

> <r_i_glide_gscore>
-7.44846823583417

> <r_i_glide_lipo>
-2.97743278627959

> <r_i_glide_hbond>
-0.778410250760117

> <r_i_glide_metal>
0

> <r_i_glide_rewards>
-0.66836885330354

> <r_i_glide_evdw>
-44.5725021362305

> <r_i_glide_ecoul>
-8.54646396636963

> <r_i_glide_erotb>
0.551192178861135

> <r_i_glide_esite>
-0.0648538225850924

> <r_i_glide_emodel>
-70.7963167378195

> <r_i_glide_energy>
-53.1189661026001

> <r_i_glide_einternal>
11.840931892395

> <i_i_glide_confnum>
48

> <i_i_glide_posenum>
388

> <r_i_glide_eff_state_penalty>
0

> <r_lp_tautomer_probability>
1

> <s_m_subgroup_title>
glide-dock_SP_top1262_2_pv

> <s_m_subgroupid>
glide-dock_SP_top1262_2_pv

> <b_m_subgroup_collapsed>
0

$$$$
O=S(C(C=C1)=CC=C1NC2=NC(OCC3CCCCC3)=C4C(NC=N4)=N2)(C=C)=O
                    3D
 Schrodinger Suite 2021-3.
  0  0  0     0  0            999 V3000
M  V30 BEGIN CTAB
M  V30 COUNTS 52 55 0 0 0
M  V30 BEGIN ATOM
M  V30 1 C  32.8912 40.2504 80.7350 0
M  V30 2 C  32.5365 40.0108 82.0099 0
M  V30 3 S  33.0235 38.4851 82.8347 0
M  V30 4 O  33.9191 37.7289 81.9505 0
M  V30 5 O  33.4280 38.8278 84.2028 0
M  V30 6 C  31.4797 37.5875 82.9422 0
M  V30 7 C  30.5359 37.9511 83.9017 0
M  V30 8 C  29.2857 37.3380 83.9092 0
M  V30 9 C  28.9724 36.3581 82.9559 0
M  V30 10 C  29.9497 35.9556 82.0455 0
M  V30 11 C  31.2005 36.5634 82.0390 0
M  V30 12 N  27.7059 35.7670 82.8166 0
M  V30 13 C  26.4436 36.0182 83.3606 0
M  V30 14 N  25.4452 35.3103 82.7727 0
M  V30 15 C  24.2378 35.6176 83.2491 0
M  V30 16 C  23.9476 36.5480 84.2825 0
M  V30 17 N  23.0142 35.1578 82.8426 0
M  V30 18 C  22.0825 35.8234 83.5950 0
M  V30 19 N  22.5912 36.6346 84.4847 0
M  V30 20 N  26.3124 36.9285 84.3609 0
M  V30 21 C  25.0728 37.1960 84.8398 0
M  V30 22 O  25.0568 38.1700 85.8224 0
M  V30 23 C  23.8825 38.5260 86.5568 0
M  V30 24 C  23.3420 39.9234 86.1632 0
M  V30 25 C  24.4054 41.0366 86.3527 0
M  V30 26 C  23.8396 42.4320 86.0142 0
M  V30 27 C  23.2657 42.4783 84.5815 0
M  V30 28 C  22.2473 41.3442 84.3291 0
M  V30 29 C  22.8265 39.9658 84.7069 0
M  V30 30 H  33.4752 39.5427 80.1625 0
M  V30 31 H  32.5949 41.1628 80.2375 0
M  V30 32 H  31.9501 40.7056 82.5962 0
M  V30 33 H  30.7557 38.7304 84.6183 0
M  V30 34 H  28.5783 37.6619 84.6548 0
M  V30 35 H  29.7350 35.1944 81.3086 0
M  V30 36 H  31.9282 36.2644 81.2949 0
M  V30 37 H  27.6425 35.1559 82.0136 0
M  V30 38 H  22.7748 34.4753 82.1304 0
M  V30 39 H  21.0352 35.6441 83.4107 0
M  V30 40 H  23.0998 37.7722 86.5656 0
M  V30 41 H  24.1940 38.5736 87.5999 0
M  V30 42 H  22.4985 40.1655 86.8137 0
M  V30 43 H  24.7783 41.0233 87.3792 0
M  V30 44 H  25.2820 40.8256 85.7370 0
M  V30 45 H  23.0548 42.6950 86.7270 0
M  V30 46 H  24.6169 43.1906 86.1224 0
M  V30 47 H  22.7983 43.4487 84.3980 0
M  V30 48 H  24.0829 42.3987 83.8601 0
M  V30 49 H  21.3430 41.5345 84.9102 0
M  V30 50 H  21.9442 41.3499 83.2805 0
M  V30 51 H  23.6442 39.6972 84.0389 0
M  V30 52 H  22.0634 39.2010 84.5569 0
M  V30 END ATOM
M  V30 BEGIN BOND
M  V30 1 2 1 2
M  V30 2 1 1 30
M  V30 3 1 1 31
M  V30 4 1 2 3
M  V30 5 1 2 32
M  V30 6 2 3 4
M  V30 7 2 3 5
M  V30 8 1 3 6
M  V30 9 2 6 7
M  V30 10 1 6 11
M  V30 11 1 7 8
M  V30 12 1 7 33
M  V30 13 2 8 9
M  V30 14 1 8 34
M  V30 15 1 9 10
M  V30 16 1 9 12
M  V30 17 2 10 11
M  V30 18 1 10 35
M  V30 19 1 11 36
M  V30 20 1 12 13
M  V30 21 1 12 37
M  V30 22 2 13 14
M  V30 23 1 13 20
M  V30 24 1 14 15
M  V30 25 2 15 16
M  V30 26 1 15 17
M  V30 27 1 16 21
M  V30 28 1 16 19
M  V30 29 1 17 18
M  V30 30 1 17 38
M  V30 31 2 18 19
M  V30 32 1 18 39
M  V30 33 2 20 21
M  V30 34 1 21 22
M  V30 35 1 22 23
M  V30 36 1 23 24
M  V30 37 1 23 40
M  V30 38 1 23 41
M  V30 39 1 24 25
M  V30 40 1 24 29
M  V30 41 1 24 42
M  V30 42 1 25 26
M  V30 43 1 25 43
M  V30 44 1 25 44
M  V30 45 1 26 27
M  V30 46 1 26 45
M  V30 47 1 26 46
M  V30 48 1 27 28
M  V30 49 1 27 47
M  V30 50 1 27 48
M  V30 51 1 28 29
M  V30 52 1 28 49
M  V30 53 1 28 50
M  V30 54 1 29 51
M  V30 55 1 29 52
M  V30 END BOND
M  V30 END CTAB
M  END
> <s_m_entry_id>
1147

> <s_m_entry_name>
result.7722

> <s_m_Source_Path>
D:\OneDrive - zju.edu.cn\DOC\A-Finished\LCK_VS\Planet\LCK-8617

> <s_m_Source_File>
glide-dock_SP_top1262_2_pv.maegz

> <i_m_Source_File_Index>
1147

> <PLANET_affinity>
7.106

> <i_lp_mmshare_version>
54117

> <i_f3d_flags>
0

> <s_epik_input>
W0NIMl09W0NIXVMoPU8pKD1PKWMxW2NIXVtjSF1jKFtjSF1bY0hdMSlbTkhdYyhuMiluYyhjKGMyMyluW2NIXVtuSF0zKU9bQ0gyXVtDSF00W0NIMl1bQ0gyXVtDSDJdW0NIMl1bQ0gyXTQ=

> <s_epik_cmdline>
J2VwaWtfcHl0aG9uJywgJy1waCcsICc3LjAnLCAnLXRuJywgJzgnLCAnLW1hJywgJzUwMCcsICctaW1hZScsICc8aW5maWxlLm1hZT4nLCAnLW9tYWUnLCAnPG91dGZpbGUubWFlPic=

> <r_epik_Ionization_Penalty>
  0.0642

> <r_epik_Ionization_Penalty_Charging>
  0.0000

> <r_epik_Ionization_Penalty_Neutral>
  0.0642

> <r_epik_State_Penalty>
  0.0000

> <r_epik_Charging_Adjusted_Penalty>
3.94446e-06

> <i_epik_Tot_Q>
0

> <i_epik_Tot_abs_Q>
0

> <s_lp_Force_Field>
S-OPLS

> <r_lp_Energy>
23.0256

> <b_lp_Chiralities_Consistent>
1

> <s_lp_Variant>
O=S(C(C=C1)=CC=C1NC2=NC(OCC3CCCCC3)=C4C(NC=N4)=N2)(C=C)=O-1

> <s_i_glide_gridfile>
glide-grid_1

> <i_i_glide_lignum>
2533

> <i_i_glide_rotatable_bonds>
7

> <r_i_docking_score>
-7.44507484419487

> <r_i_glide_ligand_efficiency>
-0.25672671876534

> <r_i_glide_ligand_efficiency_sa>
-0.78874581678056

> <r_i_glide_ligand_efficiency_ln>
-1.70473334851189

> <r_i_glide_gscore>
-7.44507484419487

> <r_i_glide_lipo>
-1.63276951783692

> <r_i_glide_hbond>
-0.489312261208462

> <r_i_glide_metal>
0

> <r_i_glide_rewards>
-2.83896563024703

> <r_i_glide_evdw>
-43.2341766357422

> <r_i_glide_ecoul>
-5.72498798370361

> <r_i_glide_erotb>
0.565401520608901

> <r_i_glide_esite>
-0.0289719261687104

> <r_i_glide_emodel>
-67.6457289740452

> <r_i_glide_energy>
-48.9591646194458

> <r_i_glide_einternal>
7.52727746963501

> <i_i_glide_confnum>
37

> <i_i_glide_posenum>
323

> <r_i_glide_eff_state_penalty>
0

> <r_lp_tautomer_probability>
0.990859

> <s_m_subgroup_title>
glide-dock_SP_top1262_2_pv

> <s_m_subgroupid>
glide-dock_SP_top1262_2_pv

> <b_m_subgroup_collapsed>
0

$$$$
O=C(NC1=CC(C(F)(F)F)=CC=C1F)NC2=CC=C(C)C(NC3=CC(NC/4=O)=C(C=C3)C4=C\C5=CC=CN5...
                    3D
 Schrodinger Suite 2021-3.
  0  0  0     0  0            999 V3000
M  V30 BEGIN CTAB
M  V30 COUNTS 60 64 0 0 0
M  V30 BEGIN ATOM
M  V30 1 F  22.0830 35.1782 87.2425 0
M  V30 2 C  21.1448 35.9563 86.6585 0
M  V30 3 C  20.0371 36.3354 87.4152 0
M  V30 4 C  19.0269 37.1087 86.8507 0
M  V30 5 C  19.1038 37.4848 85.5065 0
M  V30 6 C  18.0204 38.3381 84.8773 0
M  V30 7 F  16.8909 38.3585 85.5846 0
M  V30 8 F  18.5275 39.5566 84.8435 0
M  V30 9 F  17.7453 37.9567 83.6288 0
M  V30 10 C  20.2083 37.0985 84.7409 0
M  V30 11 C  21.2457 36.3609 85.3130 0
M  V30 12 N  22.3183 36.0182 84.4736 0
M  V30 13 C  23.5980 36.3567 84.7097 0
M  V30 14 O  23.9729 36.9238 85.7378 0
M  V30 15 N  24.4060 35.9995 83.6853 0
M  V30 16 C  25.7769 36.2993 83.5583 0
M  V30 17 C  26.5937 35.4241 82.8436 0
M  V30 18 C  27.9669 35.6618 82.7519 0
M  V30 19 C  28.5516 36.7565 83.3987 0
M  V30 20 C  30.0618 36.9406 83.3227 0
M  V30 21 C  27.7390 37.6345 84.1364 0
M  V30 22 C  26.3546 37.4374 84.1300 0
M  V30 23 N  28.2913 38.6825 84.9004 0
M  V30 24 C  27.8232 39.2273 86.1121 0
M  V30 25 C  28.3226 40.4600 86.5551 0
M  V30 26 C  26.8830 38.5487 86.9084 0
M  V30 27 C  26.3941 39.1119 88.0808 0
M  V30 28 C  26.8851 40.3435 88.4957 0
M  V30 29 C  27.8344 40.9981 87.7492 0
M  V30 30 C  26.5756 41.1733 89.6455 0
M  V30 31 C  27.4234 42.3520 89.5251 0
M  V30 32 O  27.5269 43.3221 90.2725 0
M  V30 33 N  28.1299 42.1794 88.3908 0
M  V30 34 C  25.6894 40.9148 90.6341 0
M  V30 35 C  25.2559 41.6879 91.7832 0
M  V30 36 C  25.0043 43.0406 91.9875 0
M  V30 37 C  24.4920 43.2073 93.2777 0
M  V30 38 C  24.4464 41.9546 93.8664 0
M  V30 39 N  24.9100 41.0488 92.9490 0
M  V30 40 H  19.9563 36.0206 88.4436 0
M  V30 41 H  18.1823 37.4021 87.4593 0
M  V30 42 H  20.2733 37.4052 83.7054 0
M  V30 43 H  22.0817 35.7345 83.5350 0
M  V30 44 H  24.0225 35.3855 82.9839 0
M  V30 45 H  26.1828 34.5436 82.3747 0
M  V30 46 H  28.5799 34.9697 82.1908 0
M  V30 47 H  30.5467 36.1531 82.7450 0
M  V30 48 H  30.3035 37.8989 82.8630 0
M  V30 49 H  30.4923 36.9384 84.3245 0
M  V30 50 H  25.7247 38.1618 84.6215 0
M  V30 51 H  29.2052 38.9999 84.6136 0
M  V30 52 H  29.0598 40.9897 85.9696 0
M  V30 53 H  26.5155 37.5711 86.6393 0
M  V30 54 H  25.6413 38.5867 88.6465 0
M  V30 55 H  28.8050 42.8519 88.0622 0
M  V30 56 H  25.1831 39.9629 90.5757 0
M  V30 57 H  25.1546 43.8264 91.2616 0
M  V30 58 H  24.1906 44.1420 93.7281 0
M  V30 59 H  24.1278 41.6221 94.8448 0
M  V30 60 H  24.9811 40.0542 93.1055 0
M  V30 END ATOM
M  V30 BEGIN BOND
M  V30 1 1 1 2
M  V30 2 2 2 3
M  V30 3 1 2 11
M  V30 4 1 3 4
M  V30 5 1 3 40
M  V30 6 2 4 5
M  V30 7 1 4 41
M  V30 8 1 5 6
M  V30 9 1 5 10
M  V30 10 1 6 7
M  V30 11 1 6 8
M  V30 12 1 6 9
M  V30 13 2 10 11
M  V30 14 1 10 42
M  V30 15 1 11 12
M  V30 16 1 12 13
M  V30 17 1 12 43
M  V30 18 2 13 14
M  V30 19 1 13 15
M  V30 20 1 15 16
M  V30 21 1 15 44
M  V30 22 2 16 17
M  V30 23 1 16 22
M  V30 24 1 17 18
M  V30 25 1 17 45
M  V30 26 2 18 19
M  V30 27 1 18 46
M  V30 28 1 19 20
M  V30 29 1 19 21
M  V30 30 1 20 47
M  V30 31 1 20 48
M  V30 32 1 20 49
M  V30 33 2 21 22
M  V30 34 1 21 23
M  V30 35 1 22 50
M  V30 36 1 23 24
M  V30 37 1 23 51
M  V30 38 2 24 25
M  V30 39 1 24 26
M  V30 40 1 25 29
M  V30 41 1 25 52
M  V30 42 2 26 27
M  V30 43 1 26 53
M  V30 44 1 27 28
M  V30 45 1 27 54
M  V30 46 2 28 29
M  V30 47 1 28 30
M  V30 48 1 29 33
M  V30 49 1 30 31
M  V30 50 2 30 34
M  V30 51 2 31 32
M  V30 52 1 31 33
M  V30 53 1 33 55
M  V30 54 1 34 35
M  V30 55 1 34 56
M  V30 56 2 35 36
M  V30 57 1 35 39
M  V30 58 1 36 37
M  V30 59 1 36 57
M  V30 60 2 37 38
M  V30 61 1 37 58
M  V30 62 1 38 39
M  V30 63 1 38 59
M  V30 64 1 39 60
M  V30 END BOND
M  V30 END CTAB
M  END
> <s_m_entry_id>
1148

> <s_m_entry_name>
result.1789

> <s_m_Source_Path>
D:\OneDrive - zju.edu.cn\DOC\A-Finished\LCK_VS\Planet\LCK-8617

> <s_m_Source_File>
glide-dock_SP_top1262_2_pv.maegz

> <i_m_Source_File_Index>
1148

> <PLANET_affinity>
7.357

> <i_lp_mmshare_version>
54117

> <i_f3d_flags>
0

> <s_epik_input>
RmMxW2NIXVtjSF1jKEMoRikoRilGKVtjSF1jMVtOSF1DKD1PKVtOSF1jMltjSF1bY0hdYyhbQ0gzXSljKFtjSF0yKVtOSF1jKFtjSF1bY0hdMylbY0hdYyhjMzQpW05IXUMoPU8pQ1w0PVtDSF0vYzVbY0hdW2NIXVtjSF1bbkhdNQ==

> <s_epik_cmdline>
J2VwaWtfcHl0aG9uJywgJy1waCcsICc3LjAnLCAnLXRuJywgJzgnLCAnLW1hJywgJzUwMCcsICctaW1hZScsICc8aW5maWxlLm1hZT4nLCAnLW9tYWUnLCAnPG91dGZpbGUubWFlPic=

> <r_epik_Ionization_Penalty>
  0.0000

> <r_epik_Ionization_Penalty_Charging>
  0.0000

> <r_epik_Ionization_Penalty_Neutral>
  0.0000

> <r_epik_State_Penalty>
  0.0000

> <r_epik_Charging_Adjusted_Penalty>
0

> <i_epik_Tot_Q>
0

> <i_epik_Tot_abs_Q>
0

> <s_lp_Force_Field>
S-OPLS

> <r_lp_Energy>
51.7937

> <b_lp_Chiralities_Consistent>
1

> <s_lp_Variant>
O=C(NC1=CC(C(F)(F)F)=CC=C1F)NC2=CC=C(C)C(NC3=CC(NC/4=O)=C(C=C3)C4=C\C5=CC=CN5...-1

> <s_i_glide_gridfile>
glide-grid_1

> <i_i_glide_lignum>
2165

> <i_i_glide_rotatable_bonds>
8

> <r_i_docking_score>
-7.44500844875811

> <r_i_glide_ligand_efficiency>
-0.190897652532259

> <r_i_glide_ligand_efficiency_sa>
-0.647374302921375

> <r_i_glide_ligand_efficiency_ln>
-1.59642115054635

> <r_i_glide_gscore>
-7.44500844875811

> <r_i_glide_lipo>
-3.90039224435249

> <r_i_glide_hbond>
0

> <r_i_glide_metal>
0

> <r_i_glide_rewards>
-1.25788089697694

> <r_i_glide_evdw>
-49.8905830383301

> <r_i_glide_ecoul>
-1.27521312236786

> <r_i_glide_erotb>
0.431970295343195

> <r_i_glide_esite>
-0.0328944825001912

> <r_i_glide_emodel>
-71.498681205551

> <r_i_glide_energy>
-51.1657961606979

> <r_i_glide_einternal>
4.98799800872803

> <i_i_glide_confnum>
11

> <i_i_glide_posenum>
291

> <r_i_glide_eff_state_penalty>
0

> <r_lp_tautomer_probability>
1

> <s_m_subgroup_title>
glide-dock_SP_top1262_2_pv

> <s_m_subgroupid>
glide-dock_SP_top1262_2_pv

> <b_m_subgroup_collapsed>
0

$$$$
O=C1C2=C(N=CC(OCCOC)=C2)C=CN1[C@@H](C3=NN=C4C(F)=CC(C5=CN(C)N=C5)=CN43)C
                    3D
 Schrodinger Suite 2021-3.
  0  0  0     0  0            999 V3000
M  V30 BEGIN CTAB
M  V30 COUNTS 56 60 0 0 0
M  V30 BEGIN ATOM
M  V30 1 C  24.6504 35.3545 82.8619 0
M  V30 2 N  25.8879 35.1307 82.4852 0
M  V30 3 N  26.6164 35.9716 83.2253 0
M  V30 4 C  28.0563 36.0061 83.0431 0
M  V30 5 C  25.8470 36.7303 84.0695 0
M  V30 6 C  24.5299 36.3523 83.8480 0
M  V30 7 C  23.2740 36.8961 84.4434 0
M  V30 8 C  22.0827 36.1821 84.3134 0
M  V30 9 C  20.8606 36.7049 84.7304 0
M  V30 10 F  19.7366 35.9678 84.5622 0
M  V30 11 C  23.2425 38.1630 85.0300 0
M  V30 12 N  22.0429 38.6990 85.4303 0
M  V30 13 C  20.8319 37.9916 85.2971 0
M  V30 14 C  21.6844 39.9212 85.9632 0
M  V30 15 N  20.3807 39.9495 86.1776 0
M  V30 16 N  19.8177 38.7573 85.7588 0
M  V30 17 C  22.6691 41.0578 86.2630 0 CFG=1
M  V30 18 C  22.0261 42.4624 86.1913 0
M  V30 19 N  23.4855 40.8483 87.4911 0
M  V30 20 C  22.8667 40.8917 88.7334 0
M  V30 21 O  21.6415 40.8885 88.8937 0
M  V30 22 C  24.8353 40.5784 87.3903 0
M  V30 23 C  25.7126 40.5076 88.4043 0
M  V30 24 C  25.2143 40.7449 89.7573 0
M  V30 25 C  23.8331 40.9453 89.9189 0
M  V30 26 N  26.0833 40.7582 90.7963 0
M  V30 27 C  25.5859 40.9755 92.0383 0
M  V30 28 C  24.2281 41.1680 92.3073 0
M  V30 29 C  23.3390 41.1385 91.2150 0
M  V30 30 O  23.8825 41.4043 93.6228 0
M  V30 31 C  22.5209 41.3221 94.0390 0
M  V30 32 C  22.2051 39.9158 94.5951 0
M  V30 33 O  20.8517 39.4934 94.4435 0
M  V30 34 C  19.8390 40.3426 94.9595 0
M  V30 35 H  23.8299 34.8169 82.4076 0
M  V30 36 H  28.5105 36.6793 83.7717 0
M  V30 37 H  28.2874 36.3538 82.0372 0
M  V30 38 H  28.4674 35.0038 83.1775 0
M  V30 39 H  26.2965 37.4646 84.7221 0
M  V30 40 H  22.0850 35.2071 83.8455 0
M  V30 41 H  24.1166 38.7845 85.1300 0
M  V30 42 H  23.3761 41.0732 85.4321 0
M  V30 43 H  21.6828 42.6762 85.1777 0
M  V30 44 H  21.1689 42.5650 86.8577 0
M  V30 45 H  22.7367 43.2464 86.4541 0
M  V30 46 H  25.1453 40.3765 86.3755 0
M  V30 47 H  26.7526 40.2670 88.2283 0
M  V30 48 H  26.3028 40.9900 92.8448 0
M  V30 49 H  22.2788 41.2822 91.3408 0
M  V30 50 H  22.4216 42.0512 94.8426 0
M  V30 51 H  21.7996 41.6468 93.2938 0
M  V30 52 H  22.8291 39.1740 94.0926 0
M  V30 53 H  22.4819 39.8673 95.6433 0
M  V30 54 H  18.8592 39.9587 94.6842 0
M  V30 55 H  19.8802 40.3564 96.0430 0
M  V30 56 H  19.8907 41.3599 94.5702 0
M  V30 END ATOM
M  V30 BEGIN BOND
M  V30 1 2 1 2
M  V30 2 1 1 6
M  V30 3 1 1 35
M  V30 4 1 2 3
M  V30 5 1 3 4
M  V30 6 1 3 5
M  V30 7 1 4 36
M  V30 8 1 4 37
M  V30 9 1 4 38
M  V30 10 2 5 6
M  V30 11 1 5 39
M  V30 12 1 6 7
M  V30 13 1 7 8
M  V30 14 2 7 11
M  V30 15 2 8 9
M  V30 16 1 8 40
M  V30 17 1 9 10
M  V30 18 1 9 13
M  V30 19 1 11 12
M  V30 20 1 11 41
M  V30 21 1 12 13
M  V30 22 1 12 14
M  V30 23 2 13 16
M  V30 24 2 14 15
M  V30 25 1 14 17
M  V30 26 1 15 16
M  V30 27 1 17 18
M  V30 28 1 17 19
M  V30 29 1 17 42
M  V30 30 1 18 43
M  V30 31 1 18 44
M  V30 32 1 18 45
M  V30 33 1 19 20
M  V30 34 1 19 22
M  V30 35 2 20 21
M  V30 36 1 20 25
M  V30 37 2 22 23
M  V30 38 1 22 46
M  V30 39 1 23 24
M  V30 40 1 23 47
M  V30 41 2 24 25
M  V30 42 1 24 26
M  V30 43 1 25 29
M  V30 44 2 26 27
M  V30 45 1 27 28
M  V30 46 1 27 48
M  V30 47 2 28 29
M  V30 48 1 28 30
M  V30 49 1 29 49
M  V30 50 1 30 31
M  V30 51 1 31 32
M  V30 52 1 31 50
M  V30 53 1 31 51
M  V30 54 1 32 33
M  V30 55 1 32 52
M  V30 56 1 32 53
M  V30 57 1 33 34
M  V30 58 1 34 54
M  V30 59 1 34 55
M  V30 60 1 34 56
M  V30 END BOND
M  V30 END CTAB
M  END
> <s_m_entry_id>
1149

> <s_m_entry_name>
result.1940

> <s_m_Source_Path>
D:\OneDrive - zju.edu.cn\DOC\A-Finished\LCK_VS\Planet\LCK-8617

> <s_m_Source_File>
glide-dock_SP_top1262_2_pv.maegz

> <i_m_Source_File_Index>
1149

> <PLANET_affinity>
8.515

> <i_lp_mmshare_version>
54117

> <i_f3d_flags>
0

> <s_epik_input>
W0NIM11uMW5bY0hdYyhbY0hdMSktYyhbY0hdMilbY0hdYyhGKWMobjIzKW5uYzNbQ0BASF0oW0NIM10pbihbY0hdW2NIXTQpYyg9TyljKGM0NSlbY0hdYyhbY0hdbjUpT1tDSDJdW0NIMl1PW0NIM10=

> <s_epik_cmdline>
J2VwaWtfcHl0aG9uJywgJy1waCcsICc3LjAnLCAnLXRuJywgJzgnLCAnLW1hJywgJzUwMCcsICctaW1hZScsICc8aW5maWxlLm1hZT4nLCAnLW9tYWUnLCAnPG91dGZpbGUubWFlPic=

> <r_epik_Ionization_Penalty>
  0.0001

> <r_epik_Ionization_Penalty_Charging>
  0.0000

> <r_epik_Ionization_Penalty_Neutral>
  0.0001

> <r_epik_State_Penalty>
  0.0000

> <r_epik_Charging_Adjusted_Penalty>
1.2633e-08

> <i_epik_Tot_Q>
0

> <i_epik_Tot_abs_Q>
0

> <s_lp_Force_Field>
S-OPLS

> <r_lp_Energy>
53.1245

> <b_lp_Chiralities_Consistent>
1

> <s_lp_Variant>
O=C1C2=C(N=CC(OCCOC)=C2)C=CN1[C@@H](C3=NN=C4C(F)=CC(C5=CN(C)N=C5)=CN43)C-1

> <s_i_glide_gridfile>
glide-grid_1

> <i_i_glide_lignum>
787

> <i_i_glide_rotatable_bonds>
7

> <r_i_docking_score>
-7.44493456750529

> <r_i_glide_ligand_efficiency>
-0.218968663750156

> <r_i_glide_ligand_efficiency_sa>
-0.70937346636113

> <r_i_glide_ligand_efficiency_ln>
-1.64479486930322

> <r_i_glide_gscore>
-7.44493456750529

> <r_i_glide_lipo>
-2.56777558808404

> <r_i_glide_hbond>
-0.282284123819259

> <r_i_glide_metal>
0

> <r_i_glide_rewards>
-1.83581915027701

> <r_i_glide_evdw>
-46.1048583984375

> <r_i_glide_ecoul>
-6.20302534103394

> <r_i_glide_erotb>
0.562904436965511

> <r_i_glide_esite>
-0.0862634212135287

> <r_i_glide_emodel>
-73.1018642000033

> <r_i_glide_energy>
-52.3078837394714

> <r_i_glide_einternal>
5.45046758651733

> <i_i_glide_confnum>
61

> <i_i_glide_posenum>
221

> <r_i_glide_eff_state_penalty>
0

> <r_lp_tautomer_probability>
1

> <s_m_subgroup_title>
glide-dock_SP_top1262_2_pv

> <s_m_subgroupid>
glide-dock_SP_top1262_2_pv

> <b_m_subgroup_collapsed>
0

$$$$
O=C(C1=C(C=C(C2=NC(NCCCN3CCN(C)CC3)=NC=C2Cl)S4)C4=CC=C1)NC5CC5.[H]Cl.[H]Cl.[H]Cl
                    3D
 Schrodinger Suite 2021-3.
  0  0  0     0  0            999 V3000
M  V30 BEGIN CTAB
M  V30 COUNTS 63 67 0 0 0
M  V30 BEGIN ATOM
M  V30 1 C  19.5618 39.0420 84.8517 0
M  V30 2 C  19.0277 39.0881 86.2639 0
M  V30 3 C  19.9948 40.1496 85.7850 0
M  V30 4 N  21.3672 40.1411 86.2719 0
M  V30 5 C  21.7084 40.2913 87.5601 0
M  V30 6 O  20.8829 40.4783 88.4503 0
M  V30 7 C  23.1799 40.2234 87.8775 0
M  V30 8 C  23.6574 41.0226 88.9271 0
M  V30 9 C  24.9938 41.0290 89.3087 0
M  V30 10 C  25.9298 40.2374 88.6563 0
M  V30 11 C  25.4841 39.4242 87.6087 0
M  V30 12 C  24.1160 39.3934 87.2081 0
M  V30 13 S  26.4732 38.3566 86.6330 0
M  V30 14 C  25.0715 37.8221 85.7068 0
M  V30 15 C  23.9278 38.4654 86.1417 0
M  V30 16 C  25.2205 36.8345 84.5747 0
M  V30 17 N  26.4798 36.7593 84.0553 0
M  V30 18 C  26.6916 35.9305 83.0014 0
M  V30 19 N  25.7382 35.1565 82.4299 0
M  V30 20 C  24.4917 35.2252 82.9561 0
M  V30 21 C  24.1801 36.0404 84.0437 0
M  V30 22 Cl 22.5673 35.9831 84.6688 0
M  V30 23 N  27.9741 35.8340 82.4435 0
M  V30 24 C  29.1480 36.3981 83.1053 0
M  V30 25 C  30.4761 36.1146 82.3827 0
M  V30 26 C  31.6844 36.1924 83.3438 0
M  V30 27 N  33.0015 36.2685 82.6940 0 CFG=1
M  V30 28 C  34.1159 36.2276 83.6556 0
M  V30 29 C  34.3599 34.8092 84.2473 0
M  V30 30 N  34.5717 33.7994 83.0899 0 CHG=1
M  V30 31 C  34.7456 32.3686 83.6435 0
M  V30 32 C  33.3740 33.8704 82.1127 0
M  V30 33 C  33.2622 35.3225 81.5977 0
M  V30 34 H  18.8858 39.2703 84.0304 0
M  V30 35 H  20.2846 38.2711 84.5843 0
M  V30 36 H  19.3759 38.3538 86.9909 0
M  V30 37 H  17.9951 39.3903 86.4469 0
M  V30 38 H  19.6018 41.1560 85.6435 0
M  V30 39 H  22.0879 40.2728 85.5792 0
M  V30 40 H  22.9788 41.6703 89.4673 0
M  V30 41 H  25.3093 41.6695 90.1201 0
M  V30 42 H  26.9708 40.2536 88.9479 0
M  V30 43 H  22.9636 38.2945 85.6970 0
M  V30 44 H  23.7338 34.5992 82.5043 0
M  V30 45 H  28.0849 35.2883 81.5947 0
M  V30 46 H  29.1935 35.9567 84.1002 0
M  V30 47 H  29.0256 37.4663 83.2922 0
M  V30 48 H  30.6046 36.7363 81.4948 0
M  V30 49 H  30.4237 35.0889 82.0128 0
M  V30 50 H  31.6484 35.3234 84.0011 0
M  V30 51 H  31.5594 37.0532 84.0031 0
M  V30 52 H  33.9201 36.9329 84.4660 0
M  V30 53 H  35.0221 36.5916 83.1682 0
M  V30 54 H  35.2744 34.7782 84.8434 0
M  V30 55 H  33.5370 34.4486 84.8675 0
M  V30 56 H  33.8342 32.0905 84.1767 0
M  V30 57 H  34.9317 31.7039 82.7983 0
M  V30 58 H  35.6018 32.3763 84.3226 0
M  V30 59 H  33.5718 33.1678 81.3003 0
M  V30 60 H  32.4835 33.5541 82.6572 0
M  V30 61 H  34.1796 35.6137 81.0825 0
M  V30 62 H  32.4828 35.3957 80.8433 0
M  V30 63 H  35.4055 34.0736 82.5873 0
M  V30 END ATOM
M  V30 BEGIN BOND
M  V30 1 1 1 2
M  V30 2 1 1 3
M  V30 3 1 1 34
M  V30 4 1 1 35
M  V30 5 1 2 3
M  V30 6 1 2 36
M  V30 7 1 2 37
M  V30 8 1 3 4
M  V30 9 1 3 38
M  V30 10 1 4 5
M  V30 11 1 4 39
M  V30 12 2 5 6
M  V30 13 1 5 7
M  V30 14 2 7 8
M  V30 15 1 7 12
M  V30 16 1 8 9
M  V30 17 1 8 40
M  V30 18 2 9 10
M  V30 19 1 9 41
M  V30 20 1 10 11
M  V30 21 1 10 42
M  V30 22 2 11 12
M  V30 23 1 11 13
M  V30 24 1 12 15
M  V30 25 1 13 14
M  V30 26 2 14 15
M  V30 27 1 14 16
M  V30 28 1 15 43
M  V30 29 2 16 17
M  V30 30 1 16 21
M  V30 31 1 17 18
M  V30 32 2 18 19
M  V30 33 1 18 23
M  V30 34 1 19 20
M  V30 35 2 20 21
M  V30 36 1 20 44
M  V30 37 1 21 22
M  V30 38 1 23 24
M  V30 39 1 23 45
M  V30 40 1 24 25
M  V30 41 1 24 46
M  V30 42 1 24 47
M  V30 43 1 25 26
M  V30 44 1 25 48
M  V30 45 1 25 49
M  V30 46 1 26 27
M  V30 47 1 26 50
M  V30 48 1 26 51
M  V30 49 1 27 28
M  V30 50 1 27 33
M  V30 51 1 28 29
M  V30 52 1 28 52
M  V30 53 1 28 53
M  V30 54 1 29 30
M  V30 55 1 29 54
M  V30 56 1 29 55
M  V30 57 1 30 31
M  V30 58 1 30 32
M  V30 59 1 30 63
M  V30 60 1 31 56
M  V30 61 1 31 57
M  V30 62 1 31 58
M  V30 63 1 32 33
M  V30 64 1 32 59
M  V30 65 1 32 60
M  V30 66 1 33 61
M  V30 67 1 33 62
M  V30 END BOND
M  V30 END CTAB
M  END
> <s_m_entry_id>
1151

> <s_m_entry_name>
result.492

> <s_m_Source_Path>
D:\OneDrive - zju.edu.cn\DOC\A-Finished\LCK_VS\Planet\LCK-8617

> <s_m_Source_File>
glide-dock_SP_top1262_2_pv.maegz

> <i_m_Source_File_Index>
1151

> <PLANET_affinity>
8.212

> <i_lp_mmshare_version>
54117

> <i_f3d_flags>
0

> <s_epik_input>
W0NIMl0xW0NIMl1bQ0hdMVtOSF1DKD1PKWMoW2NIXVtjSF1bY0hdMiljKGMyMylbY0hdYyhzMyktYzRuYyhuW2NIXWM0Q2wpW05IXVtDSDJdW0NIMl1bQ0gyXU41W0NIMl1bQ0gyXU4oW0NIM10pW0NIMl1bQ0gyXTU=

> <s_epik_cmdline>
J2VwaWtfcHl0aG9uJywgJy1waCcsICc3LjAnLCAnLXRuJywgJzgnLCAnLW1hJywgJzUwMCcsICctaW1hZScsICc8aW5maWxlLm1hZT4nLCAnLW9tYWUnLCAnPG91dGZpbGUubWFlPic=

> <r_epik_Ionization_Penalty>
  0.0240

> <r_epik_Ionization_Penalty_Charging>
  0.0222

> <r_epik_Ionization_Penalty_Neutral>
  0.0018

> <r_epik_State_Penalty>
  0.2831

> <r_epik_Charging_Adjusted_Penalty>
0.305247

> <i_epik_Tot_Q>
1

> <i_epik_Tot_abs_Q>
1

> <s_lp_Force_Field>
S-OPLS

> <r_lp_Energy>
62.8552

> <b_lp_Chiralities_Consistent>
1

> <s_lp_Variant>
O=C(C1=C(C=C(C2=NC(NCCCN3CCN(C)CC3)=NC=C2Cl)S4)C4=CC=C1)NC5CC5.[H]Cl.[H]Cl.[H]Cl-1

> <s_i_glide_gridfile>
glide-grid_1

> <i_i_glide_lignum>
1068

> <i_i_glide_rotatable_bonds>
9

> <r_i_docking_score>
-7.44255937654812

> <r_i_glide_ligand_efficiency>
-0.22553210231964

> <r_i_glide_ligand_efficiency_sa>
-0.72340195986325

> <r_i_glide_ligand_efficiency_ln>
-1.65518666983423

> <r_i_glide_gscore>
-7.72565937654812

> <r_i_glide_lipo>
-2.35595882382988

> <r_i_glide_hbond>
-0.706771904874315

> <r_i_glide_metal>
0

> <r_i_glide_rewards>
-1.57196532724674

> <r_i_glide_evdw>
-40.9033546447754

> <r_i_glide_ecoul>
-10.2239217758179

> <r_i_glide_erotb>
0.541858165092019

> <r_i_glide_esite>
-0.0540654870777593

> <r_i_glide_emodel>
-77.8283563004636

> <r_i_glide_energy>
-51.1272764205933

> <r_i_glide_einternal>
8.04165649414062

> <i_i_glide_confnum>
116

> <i_i_glide_posenum>
336

> <r_i_glide_eff_state_penalty>
0.2831

> <r_lp_tautomer_probability>
1

> <s_m_subgroup_title>
glide-dock_SP_top1262_2_pv

> <s_m_subgroupid>
glide-dock_SP_top1262_2_pv

> <b_m_subgroup_collapsed>
0

$$$$
[H]Cl.[H]Cl.S=C1NC2=CC3=C(NCC4=CC=CC=C4N5CCC(CO)CC5)N=CN=C3C=C2N1CC
                    3D
 Schrodinger Suite 2021-3.
  0  0  0     0  0            999 V3000
M  V30 BEGIN CTAB
M  V30 COUNTS 60 64 0 0 0
M  V30 BEGIN ATOM
M  V30 1 S  31.1126 38.9591 84.0884 0
M  V30 2 C  29.5660 38.3503 84.0322 0
M  V30 3 N  28.5207 38.7235 84.8123 0
M  V30 4 N  28.9958 37.3806 83.2414 0
M  V30 5 C  29.7067 36.5835 82.2349 0
M  V30 6 C  30.2743 35.2815 82.8090 0
M  V30 7 C  27.6476 37.1869 83.5429 0
M  V30 8 C  27.3566 38.0514 84.5618 0
M  V30 9 C  26.6700 36.3425 83.0124 0
M  V30 10 C  25.3606 36.3745 83.5690 0
M  V30 11 C  25.0741 37.2644 84.6585 0
M  V30 12 C  26.1015 38.1282 85.1446 0
M  V30 13 C  23.7552 37.1919 85.1974 0
M  V30 14 N  22.8130 36.3501 84.7006 0
M  V30 15 C  23.1835 35.5861 83.6432 0
M  V30 16 N  24.4053 35.5478 83.0552 0
M  V30 17 N  23.4223 38.0189 86.2858 0
M  V30 18 C  22.3460 37.7503 87.2355 0
M  V30 19 C  20.9152 37.9827 86.7429 0
M  V30 20 C  19.9663 37.0309 87.1418 0
M  V30 21 C  18.6270 37.1562 86.7826 0
M  V30 22 C  18.2234 38.2032 85.9651 0
M  V30 23 C  19.1552 39.1540 85.5619 0
M  V30 24 C  20.4877 39.1034 85.9881 0
M  V30 25 N  21.2801 40.1845 85.6248 0
M  V30 26 C  21.9237 40.2150 84.3038 0
M  V30 27 C  22.1362 41.6549 83.7906 0
M  V30 28 C  22.9357 42.5290 84.7815 0
M  V30 29 C  24.4302 42.1507 84.8827 0
M  V30 30 O  25.0732 42.3566 83.6454 0
M  V30 31 C  22.2294 42.4406 86.1481 0
M  V30 32 C  22.0026 40.9879 86.6242 0
M  V30 33 H  28.6489 39.4430 85.5094 0
M  V30 34 H  30.5114 37.1675 81.7858 0
M  V30 35 H  29.0273 36.3508 81.4156 0
M  V30 36 H  30.8282 34.7459 82.0389 0
M  V30 37 H  29.4787 34.6285 83.1680 0
M  V30 38 H  30.9627 35.4718 83.6345 0
M  V30 39 H  26.8837 35.6633 82.1990 0
M  V30 40 H  25.9099 38.8146 85.9554 0
M  V30 41 H  22.4354 34.9161 83.2401 0
M  V30 42 H  24.1768 38.5840 86.6428 0
M  V30 43 H  22.4652 36.7200 87.5734 0
M  V30 44 H  22.4991 38.3747 88.1154 0
M  V30 45 H  20.2604 36.1860 87.7485 0
M  V30 46 H  17.9074 36.4217 87.1161 0
M  V30 47 H  17.1897 38.2908 85.6619 0
M  V30 48 H  18.8253 39.9677 84.9416 0
M  V30 49 H  22.8678 39.6748 84.3305 0
M  V30 50 H  21.2847 39.6855 83.6018 0
M  V30 51 H  22.6589 41.6101 82.8349 0
M  V30 52 H  21.1727 42.1064 83.5536 0
M  V30 53 H  22.8573 43.5638 84.4470 0
M  V30 54 H  24.9281 42.7758 85.6253 0
M  V30 55 H  24.5691 41.1132 85.1888 0
M  V30 56 H  24.8816 43.2565 83.3402 0
M  V30 57 H  21.2827 42.9785 86.1312 0
M  V30 58 H  22.8212 42.9682 86.8969 0
M  V30 59 H  21.4039 41.0221 87.5355 0
M  V30 60 H  22.9492 40.5165 86.8823 0
M  V30 END ATOM
M  V30 BEGIN BOND
M  V30 1 2 1 2
M  V30 2 1 2 3
M  V30 3 1 2 4
M  V30 4 1 3 8
M  V30 5 1 3 33
M  V30 6 1 4 5
M  V30 7 1 4 7
M  V30 8 1 5 6
M  V30 9 1 5 34
M  V30 10 1 5 35
M  V30 11 1 6 36
M  V30 12 1 6 37
M  V30 13 1 6 38
M  V30 14 2 7 8
M  V30 15 1 7 9
M  V30 16 1 8 12
M  V30 17 2 9 10
M  V30 18 1 9 39
M  V30 19 1 10 11
M  V30 20 1 10 16
M  V30 21 2 11 12
M  V30 22 1 11 13
M  V30 23 1 12 40
M  V30 24 2 13 14
M  V30 25 1 13 17
M  V30 26 1 14 15
M  V30 27 2 15 16
M  V30 28 1 15 41
M  V30 29 1 17 18
M  V30 30 1 17 42
M  V30 31 1 18 19
M  V30 32 1 18 43
M  V30 33 1 18 44
M  V30 34 2 19 20
M  V30 35 1 19 24
M  V30 36 1 20 21
M  V30 37 1 20 45
M  V30 38 2 21 22
M  V30 39 1 21 46
M  V30 40 1 22 23
M  V30 41 1 22 47
M  V30 42 2 23 24
M  V30 43 1 23 48
M  V30 44 1 24 25
M  V30 45 1 25 26
M  V30 46 1 25 32
M  V30 47 1 26 27
M  V30 48 1 26 49
M  V30 49 1 26 50
M  V30 50 1 27 28
M  V30 51 1 27 51
M  V30 52 1 27 52
M  V30 53 1 28 29
M  V30 54 1 28 31
M  V30 55 1 28 53
M  V30 56 1 29 30
M  V30 57 1 29 54
M  V30 58 1 29 55
M  V30 59 1 30 56
M  V30 60 1 31 32
M  V30 61 1 31 57
M  V30 62 1 31 58
M  V30 63 1 32 59
M  V30 64 1 32 60
M  V30 END BOND
M  V30 END CTAB
M  END
> <s_m_entry_id>
1155

> <s_m_entry_name>
result.8444

> <s_m_Source_Path>
D:\OneDrive - zju.edu.cn\DOC\A-Finished\LCK_VS\Planet\LCK-8617

> <s_m_Source_File>
glide-dock_SP_top1262_2_pv.maegz

> <i_m_Source_File_Index>
1155

> <PLANET_affinity>
8.368

> <i_lp_mmshare_version>
54117

> <i_f3d_flags>
0

> <s_epik_input>
W0NIM11bQ0gyXW4xYyg9UylbbkhdYyhjMTIpW2NIXWMzYyhbY0hdMiluW2NIXW5jM1tOSF1bQ0gyXWM0W2NIXVtjSF1bY0hdW2NIXWM0TjVbQ0gyXVtDSDJdW0NIXShbQ0gyXVtPSF0pW0NIMl1bQ0gyXTU=

> <s_epik_cmdline>
J2VwaWtfcHl0aG9uJywgJy1waCcsICc3LjAnLCAnLXRuJywgJzgnLCAnLW1hJywgJzUwMCcsICctaW1hZScsICc8aW5maWxlLm1hZT4nLCAnLW9tYWUnLCAnPG91dGZpbGUubWFlPic=

> <r_epik_Ionization_Penalty>
  0.0577

> <r_epik_Ionization_Penalty_Charging>
  0.0311

> <r_epik_Ionization_Penalty_Neutral>
  0.0267

> <r_epik_State_Penalty>
  0.0437

> <r_epik_Charging_Adjusted_Penalty>
0.0747561

> <i_epik_Tot_Q>
0

> <i_epik_Tot_abs_Q>
0

> <s_lp_Force_Field>
S-OPLS

> <r_lp_Energy>
55.7389

> <b_lp_Chiralities_Consistent>
1

> <s_lp_Variant>
[H]Cl.[H]Cl.S=C1NC2=CC3=C(NCC4=CC=CC=C4N5CCC(CO)CC5)N=CN=C3C=C2N1CC-1

> <s_i_glide_gridfile>
glide-grid_1

> <i_i_glide_lignum>
896

> <i_i_glide_rotatable_bonds>
7

> <r_i_docking_score>
-7.4383274606271

> <r_i_glide_ligand_efficiency>
-0.232447733144597

> <r_i_glide_ligand_efficiency_sa>
-0.73797555139017

> <r_i_glide_ligand_efficiency_ln>
-1.66564427958307

> <r_i_glide_gscore>
-7.4820274606271

> <r_i_glide_lipo>
-3.00927447200523

> <r_i_glide_hbond>
-0.32

> <r_i_glide_metal>
0

> <r_i_glide_rewards>
-1.28015437446933

> <r_i_glide_evdw>
-47.788444519043

> <r_i_glide_ecoul>
-6.5397891998291

> <r_i_glide_erotb>
0.49779199177397

> <r_i_glide_esite>
0

> <r_i_glide_emodel>
-76.5992016141313

> <r_i_glide_energy>
-54.3282337188721

> <r_i_glide_einternal>
2.75266122817993

> <i_i_glide_confnum>
292

> <i_i_glide_posenum>
197

> <r_i_glide_eff_state_penalty>
0.0437

> <s_m_subgroup_title>
glide-dock_SP_top1262_2_pv

> <s_m_subgroupid>
glide-dock_SP_top1262_2_pv

> <b_m_subgroup_collapsed>
0

$$$$
O=C(C1=CC=CC2=C1C=C(C)N2C3=NC(NCC4=CC=CC=C4)=C(COCC5)C5=N3)N
                    3D
 Schrodinger Suite 2021-3.
  0  0  0     0  0            999 V3000
M  V30 BEGIN CTAB
M  V30 COUNTS 54 58 0 0 0
M  V30 BEGIN ATOM
M  V30 1 C  21.7165 40.3681 86.5562 0
M  V30 2 C  20.8933 41.3476 87.0917 0
M  V30 3 C  21.2636 42.0876 88.2034 0
M  V30 4 C  22.4915 41.8874 88.8560 0
M  V30 5 C  22.8358 42.7177 90.0669 0
M  V30 6 O  23.5469 42.2798 90.9670 0
M  V30 7 N  22.3487 43.9570 90.1124 0
M  V30 8 C  23.3440 40.8878 88.3302 0
M  V30 9 C  22.9510 40.1225 87.1881 0
M  V30 10 C  24.6387 40.4140 88.6878 0
M  V30 11 C  25.0081 39.4085 87.8236 0
M  V30 12 C  26.3041 38.6171 87.8551 0
M  V30 13 N  23.9747 39.1989 86.9048 0
M  V30 14 C  23.9369 38.2114 85.8673 0
M  V30 15 N  25.0993 37.7254 85.3602 0
M  V30 16 C  25.0152 36.7274 84.4421 0
M  V30 17 C  23.7840 36.2579 83.9520 0
M  V30 18 C  26.2905 36.1437 83.8805 0
M  V30 19 C  26.0913 35.7294 82.4223 0
M  V30 20 O  25.0536 34.7567 82.4434 0
M  V30 21 C  23.7566 35.2295 82.8145 0
M  V30 22 N  22.7142 37.7877 85.4731 0
M  V30 23 C  22.6373 36.8527 84.4921 0
M  V30 24 N  21.3730 36.5111 83.9822 0
M  V30 25 C  20.2018 37.3522 84.2484 0
M  V30 26 C  19.5796 37.1713 85.6311 0
M  V30 27 C  20.0811 36.2598 86.5744 0
M  V30 28 C  19.3932 36.0392 87.7584 0
M  V30 29 C  18.2336 36.7575 88.0342 0
M  V30 30 C  17.7576 37.7037 87.1305 0
M  V30 31 C  18.4319 37.9111 85.9315 0
M  V30 32 H  21.3846 39.8374 85.6791 0
M  V30 33 H  19.9386 41.5526 86.6268 0
M  V30 34 H  20.5644 42.8412 88.5434 0
M  V30 35 H  21.8118 44.3259 89.3399 0
M  V30 36 H  22.5640 44.5466 90.9013 0
M  V30 37 H  25.2496 40.7709 89.5021 0
M  V30 38 H  26.8861 38.8230 88.7532 0
M  V30 39 H  26.9458 38.8561 87.0081 0
M  V30 40 H  26.1283 37.5423 87.8417 0
M  V30 41 H  27.1437 36.8121 84.0076 0
M  V30 42 H  26.4828 35.2407 84.4440 0
M  V30 43 H  25.8484 36.5751 81.7744 0
M  V30 44 H  27.0021 35.2648 82.0436 0
M  V30 45 H  23.1549 34.3613 83.0860 0
M  V30 46 H  23.2996 35.6804 81.9327 0
M  V30 47 H  21.3617 35.9218 83.1630 0
M  V30 48 H  20.4616 38.4038 84.1051 0
M  V30 49 H  19.4387 37.1365 83.4999 0
M  V30 50 H  20.9615 35.6669 86.3774 0
M  V30 51 H  19.7511 35.2889 88.4435 0
M  V30 52 H  17.6847 36.5725 88.9467 0
M  V30 53 H  16.8623 38.2687 87.3502 0
M  V30 54 H  18.0366 38.6268 85.2257 0
M  V30 END ATOM
M  V30 BEGIN BOND
M  V30 1 2 1 2
M  V30 2 1 1 9
M  V30 3 1 1 32
M  V30 4 1 2 3
M  V30 5 1 2 33
M  V30 6 2 3 4
M  V30 7 1 3 34
M  V30 8 1 4 5
M  V30 9 1 4 8
M  V30 10 2 5 6
M  V30 11 1 5 7
M  V30 12 1 7 35
M  V30 13 1 7 36
M  V30 14 2 8 9
M  V30 15 1 8 10
M  V30 16 1 9 13
M  V30 17 2 10 11
M  V30 18 1 10 37
M  V30 19 1 11 12
M  V30 20 1 11 13
M  V30 21 1 12 38
M  V30 22 1 12 39
M  V30 23 1 12 40
M  V30 24 1 13 14
M  V30 25 2 14 15
M  V30 26 1 14 22
M  V30 27 1 15 16
M  V30 28 2 16 17
M  V30 29 1 16 18
M  V30 30 1 17 23
M  V30 31 1 17 21
M  V30 32 1 18 19
M  V30 33 1 18 41
M  V30 34 1 18 42
M  V30 35 1 19 20
M  V30 36 1 19 43
M  V30 37 1 19 44
M  V30 38 1 20 21
M  V30 39 1 21 45
M  V30 40 1 21 46
M  V30 41 2 22 23
M  V30 42 1 23 24
M  V30 43 1 24 25
M  V30 44 1 24 47
M  V30 45 1 25 26
M  V30 46 1 25 48
M  V30 47 1 25 49
M  V30 48 2 26 27
M  V30 49 1 26 31
M  V30 50 1 27 28
M  V30 51 1 27 50
M  V30 52 2 28 29
M  V30 53 1 28 51
M  V30 54 1 29 30
M  V30 55 1 29 52
M  V30 56 2 30 31
M  V30 57 1 30 53
M  V30 58 1 31 54
M  V30 END BOND
M  V30 END CTAB
M  END
> <s_m_entry_id>
1162

> <s_m_entry_name>
result.3947

> <s_m_Source_Path>
D:\OneDrive - zju.edu.cn\DOC\A-Finished\LCK_VS\Planet\LCK-8617

> <s_m_Source_File>
glide-dock_SP_top1262_2_pv.maegz

> <i_m_Source_File_Index>
1162

> <PLANET_affinity>
7.678

> <i_lp_mmshare_version>
54117

> <i_f3d_flags>
0

> <s_epik_input>
Tz1DKFtOSDJdKWMxW2NIXVtjSF1bY0hdYyhjMTIpbihjKFtjSF0yKVtDSDNdKS1jKG4zKW5jKGMoYzM0KVtDSDJdT1tDSDJdW0NIMl00KVtOSF1bQ0gyXWM1W2NIXVtjSF1bY0hdW2NIXVtjSF01

> <s_epik_cmdline>
J2VwaWtfcHl0aG9uJywgJy1waCcsICc3LjAnLCAnLXRuJywgJzgnLCAnLW1hJywgJzUwMCcsICctaW1hZScsICc8aW5maWxlLm1hZT4nLCAnLW9tYWUnLCAnPG91dGZpbGUubWFlPic=

> <r_epik_Ionization_Penalty>
  0.0000

> <r_epik_Ionization_Penalty_Charging>
  0.0000

> <r_epik_Ionization_Penalty_Neutral>
  0.0000

> <r_epik_State_Penalty>
  0.0000

> <r_epik_Charging_Adjusted_Penalty>
0

> <i_epik_Tot_Q>
0

> <i_epik_Tot_abs_Q>
0

> <s_lp_Force_Field>
S-OPLS

> <r_lp_Energy>
42.7823

> <b_lp_Chiralities_Consistent>
1

> <s_lp_Variant>
O=C(C1=CC=CC2=C1C=C(C)N2C3=NC(NCC4=CC=CC=C4)=C(COCC5)C5=N3)N-1

> <s_i_glide_gridfile>
glide-grid_1

> <i_i_glide_lignum>
1682

> <i_i_glide_rotatable_bonds>
5

> <r_i_docking_score>
-7.43371999185053

> <r_i_glide_ligand_efficiency>
-0.239797419091953

> <r_i_glide_ligand_efficiency_sa>
-0.753294971966582

> <r_i_glide_ligand_efficiency_ln>
-1.67653167432036

> <r_i_glide_gscore>
-7.43371999185053

> <r_i_glide_lipo>
-3.25975512097682

> <r_i_glide_hbond>
-0.32

> <r_i_glide_metal>
0

> <r_i_glide_rewards>
-1.5278615047595

> <r_i_glide_evdw>
-40.3934783935547

> <r_i_glide_ecoul>
-4.98371171951294

> <r_i_glide_erotb>
0.461597805683329

> <r_i_glide_esite>
-0.0204704941928593

> <r_i_glide_emodel>
-63.6985181967033

> <r_i_glide_energy>
-45.3771901130676

> <r_i_glide_einternal>
4.19052410125732

> <i_i_glide_confnum>
3

> <i_i_glide_posenum>
278

> <r_i_glide_eff_state_penalty>
0

> <r_lp_tautomer_probability>
1

> <s_m_subgroup_title>
glide-dock_SP_top1262_2_pv

> <s_m_subgroupid>
glide-dock_SP_top1262_2_pv

> <b_m_subgroup_collapsed>
0

$$$$
NC1=C2C(N(CC3CCN(C)CC3)N=C2C4=CC=C5N=C(OCC)C=CC5=C4)=NC=N1
                    3D
 Schrodinger Suite 2021-3.
  0  0  0     0  0            999 V3000
M  V30 BEGIN CTAB
M  V30 COUNTS 59 63 0 0 0
M  V30 BEGIN ATOM
M  V30 1 C  32.8463 34.3088 83.3031 0
M  V30 2 C  33.9988 34.2890 84.3175 0
M  V30 3 N  35.1122 35.2381 83.8113 0 CHG=1 CFG=2
M  V30 4 C  36.2831 35.2321 84.8178 0
M  V30 5 C  34.5954 36.6801 83.5783 0
M  V30 6 C  33.4093 36.6194 82.5951 0
M  V30 7 C  32.2696 35.7346 83.1534 0 CFG=1
M  V30 8 C  30.9969 35.7659 82.2565 0
M  V30 9 N  29.9066 36.5551 82.8419 0
M  V30 10 C  29.8865 37.8806 83.2439 0
M  V30 11 C  28.5391 38.1674 83.5693 0
M  V30 12 N  30.8927 38.7663 83.2508 0
M  V30 13 C  30.5090 40.0192 83.6124 0
M  V30 14 N  29.2580 40.4397 83.9199 0
M  V30 15 C  28.2710 39.5136 83.8914 0
M  V30 16 N  26.9864 39.9870 84.1240 0
M  V30 17 N  28.6738 36.0084 82.9291 0
M  V30 18 C  27.8470 36.9160 83.4048 0
M  V30 19 C  26.4044 36.6067 83.6609 0
M  V30 20 C  25.6821 35.7666 82.8080 0
M  V30 21 C  24.3141 35.5556 82.9902 0
M  V30 22 C  25.7519 37.2143 84.7362 0
M  V30 23 C  24.3622 37.0480 84.9299 0
M  V30 24 C  23.6276 36.2073 84.0434 0
M  V30 25 C  23.6544 37.7086 85.9607 0
M  V30 26 C  22.2758 37.5434 86.0560 0
M  V30 27 C  21.6185 36.7073 85.1432 0
M  V30 28 N  22.2808 36.0377 84.1651 0
M  V30 29 O  20.2540 36.4854 85.1161 0
M  V30 30 C  19.3912 37.2050 85.9993 0
M  V30 31 C  19.3637 36.5968 87.4112 0
M  V30 32 H  32.0817 33.6235 83.6608 0
M  V30 33 H  33.1436 33.9001 82.3351 0
M  V30 34 H  33.6820 34.6440 85.3001 0
M  V30 35 H  34.4365 33.2932 84.4246 0
M  V30 36 H  35.9087 35.5791 85.7828 0
M  V30 37 H  36.6434 34.2041 84.8885 0
M  V30 38 H  37.0631 35.8878 84.4292 0
M  V30 39 H  34.3071 37.0877 84.5499 0
M  V30 40 H  35.4279 37.2606 83.1752 0
M  V30 41 H  33.7207 36.2720 81.6081 0
M  V30 42 H  33.0488 37.6309 82.4119 0
M  V30 43 H  32.0125 36.0939 84.1531 0
M  V30 44 H  30.6288 34.7567 82.0618 0
M  V30 45 H  31.2067 36.1842 81.2703 0
M  V30 46 H  31.2807 40.7777 83.6332 0
M  V30 47 H  26.2037 39.3532 84.0581 0
M  V30 48 H  26.8626 40.9670 84.3313 0
M  V30 49 H  26.1863 35.2944 81.9766 0
M  V30 50 H  23.7576 34.9196 82.3154 0
M  V30 51 H  26.3011 37.8334 85.4308 0
M  V30 52 H  24.1814 38.3557 86.6478 0
M  V30 53 H  21.7425 38.0753 86.8276 0
M  V30 54 H  18.3866 37.1577 85.5777 0
M  V30 55 H  19.6397 38.2673 86.0269 0
M  V30 56 H  18.6607 37.1348 88.0473 0
M  V30 57 H  20.3385 36.6261 87.8959 0
M  V30 58 H  19.0464 35.5563 87.3813 0
M  V30 59 H  35.4332 34.8759 82.9227 0
M  V30 END ATOM
M  V30 BEGIN BOND
M  V30 1 1 1 2
M  V30 2 1 1 7
M  V30 3 1 1 32
M  V30 4 1 1 33
M  V30 5 1 2 3
M  V30 6 1 2 34
M  V30 7 1 2 35
M  V30 8 1 3 4
M  V30 9 1 3 5
M  V30 10 1 3 59
M  V30 11 1 4 36
M  V30 12 1 4 37
M  V30 13 1 4 38
M  V30 14 1 5 6
M  V30 15 1 5 39
M  V30 16 1 5 40
M  V30 17 1 6 7
M  V30 18 1 6 41
M  V30 19 1 6 42
M  V30 20 1 7 8
M  V30 21 1 7 43
M  V30 22 1 8 9
M  V30 23 1 8 44
M  V30 24 1 8 45
M  V30 25 1 9 10
M  V30 26 1 9 17
M  V30 27 1 10 11
M  V30 28 2 10 12
M  V30 29 2 11 15
M  V30 30 1 11 18
M  V30 31 1 12 13
M  V30 32 2 13 14
M  V30 33 1 13 46
M  V30 34 1 14 15
M  V30 35 1 15 16
M  V30 36 1 16 47
M  V30 37 1 16 48
M  V30 38 2 17 18
M  V30 39 1 18 19
M  V30 40 2 19 20
M  V30 41 1 19 22
M  V30 42 1 20 21
M  V30 43 1 20 49
M  V30 44 2 21 24
M  V30 45 1 21 50
M  V30 46 2 22 23
M  V30 47 1 22 51
M  V30 48 1 23 24
M  V30 49 1 23 25
M  V30 50 1 24 28
M  V30 51 2 25 26
M  V30 52 1 25 52
M  V30 53 1 26 27
M  V30 54 1 26 53
M  V30 55 2 27 28
M  V30 56 1 27 29
M  V30 57 1 29 30
M  V30 58 1 30 31
M  V30 59 1 30 54
M  V30 60 1 30 55
M  V30 61 1 31 56
M  V30 62 1 31 57
M  V30 63 1 31 58
M  V30 END BOND
M  V30 END CTAB
M  END
> <s_m_entry_id>
1165

> <s_m_entry_name>
result.3224

> <s_m_Source_Path>
D:\OneDrive - zju.edu.cn\DOC\A-Finished\LCK_VS\Planet\LCK-8617

> <s_m_Source_File>
glide-dock_SP_top1262_2_pv.maegz

> <i_m_Source_File_Index>
1165

> <PLANET_affinity>
7.335

> <i_lp_mmshare_version>
54117

> <i_f3d_flags>
0

> <s_epik_input>
W0NIM11OMVtDSDJdW0NIMl1bQ0hdKFtDSDJdW0NIMl0xKVtDSDJdbjJuYyhjKGMyMyljKFtOSDJdKW5bY0hdbjMpLWMoW2NIXTQpW2NIXVtjSF1jKGM0NSluYyhbY0hdW2NIXTUpT1tDSDJdW0NIM10=

> <s_epik_cmdline>
J2VwaWtfcHl0aG9uJywgJy1waCcsICc3LjAnLCAnLXRuJywgJzgnLCAnLW1hJywgJzUwMCcsICctaW1hZScsICc8aW5maWxlLm1hZT4nLCAnLW9tYWUnLCAnPG91dGZpbGUubWFlPic=

> <r_epik_Ionization_Penalty>
  0.0020

> <r_epik_Ionization_Penalty_Charging>
  0.0015

> <r_epik_Ionization_Penalty_Neutral>
  0.0005

> <r_epik_State_Penalty>
  0.0000

> <r_epik_Charging_Adjusted_Penalty>
0.00148717

> <i_epik_Tot_Q>
1

> <i_epik_Tot_abs_Q>
1

> <s_lp_Force_Field>
S-OPLS

> <r_lp_Energy>
46.4424

> <b_lp_Chiralities_Consistent>
1

> <s_lp_Variant>
NC1=C2C(N(CC3CCN(C)CC3)N=C2C4=CC=C5N=C(OCC)C=CC5=C4)=NC=N1-1

> <s_i_glide_gridfile>
glide-grid_1

> <i_i_glide_lignum>
2190

> <i_i_glide_rotatable_bonds>
5

> <r_i_docking_score>
-7.43131969763497

> <r_i_glide_ligand_efficiency>
-0.239719990246289

> <r_i_glide_ligand_efficiency_sa>
-0.753051738489157

> <r_i_glide_ligand_efficiency_ln>
-1.67599033441457

> <r_i_glide_gscore>
-7.43131969763497

> <r_i_glide_lipo>
-3.11424457313126

> <r_i_glide_hbond>
-0.32

> <r_i_glide_metal>
0

> <r_i_glide_rewards>
-1.32352248106532

> <r_i_glide_evdw>
-39.8179359436035

> <r_i_glide_ecoul>
-7.15722703933716

> <r_i_glide_erotb>
0.451600327391454

> <r_i_glide_esite>
-0.060672117749089

> <r_i_glide_emodel>
-68.5605658290909

> <r_i_glide_energy>
-46.9751629829407

> <r_i_glide_einternal>
7.68996429443359

> <i_i_glide_confnum>
35

> <i_i_glide_posenum>
246

> <r_i_glide_eff_state_penalty>
0

> <r_lp_tautomer_probability>
1

> <s_m_subgroup_title>
glide-dock_SP_top1262_2_pv

> <s_m_subgroupid>
glide-dock_SP_top1262_2_pv

> <b_m_subgroup_collapsed>
0

$$$$
O=C(NC)C1=CC=CC=C1NC2=NC(NC3=CC=C(N4CCN(CCCN)CC4)C=C3)=NC=C2Cl
                    3D
 Schrodinger Suite 2021-3.
  0  0  0     0  0            999 V3000
M  V30 BEGIN CTAB
M  V30 COUNTS 67 70 0 0 0
M  V30 BEGIN ATOM
M  V30 1 C  20.9292 41.6709 87.1565 0
M  V30 2 N  22.2914 41.1723 87.3158 0
M  V30 3 C  22.6375 39.8760 87.2264 0
M  V30 4 O  21.8152 38.9805 87.0250 0
M  V30 5 C  24.1209 39.5682 87.3540 0
M  V30 6 C  24.9013 40.3323 88.2418 0
M  V30 7 C  26.2594 40.0784 88.4120 0
M  V30 8 C  26.8681 39.0545 87.6980 0
M  V30 9 C  26.1176 38.2875 86.8120 0
M  V30 10 C  24.7482 38.5268 86.6184 0
M  V30 11 N  23.9962 37.7414 85.7196 0
M  V30 12 C  24.2879 36.8531 84.6693 0
M  V30 13 N  25.5690 36.7106 84.2363 0
M  V30 14 C  25.7929 35.9027 83.1675 0
M  V30 15 N  24.8350 35.1959 82.5183 0
M  V30 16 C  23.5625 35.3391 82.9685 0
M  V30 17 C  23.2333 36.1686 84.0433 0
M  V30 18 Cl 21.5779 36.3560 84.5190 0
M  V30 19 N  27.0884 35.7517 82.6556 0
M  V30 20 C  28.3229 36.3568 82.9380 0
M  V30 21 C  28.4500 37.5565 83.6442 0
M  V30 22 C  29.7078 38.1071 83.8708 0
M  V30 23 C  30.8661 37.4805 83.3887 0
M  V30 24 C  30.7237 36.2917 82.6619 0
M  V30 25 C  29.4679 35.7339 82.4436 0
M  V30 26 N  32.1358 38.0241 83.5905 0
M  V30 27 C  33.2382 37.1758 84.0798 0
M  V30 28 C  33.3588 37.1998 85.6230 0
M  V30 29 N  33.5890 38.5644 86.1257 0
M  V30 30 C  32.4651 39.3936 85.6681 0
M  V30 31 C  32.3628 39.3812 84.1231 0
M  V30 32 C  33.6700 38.6268 87.5928 0
M  V30 33 C  35.1092 38.4712 88.1449 0
M  V30 34 C  35.8519 37.1448 87.8858 0
M  V30 35 N  35.0540 35.9565 88.4436 0 CHG=1
M  V30 36 H  20.9008 42.7520 87.3014 0
M  V30 37 H  20.5555 41.4551 86.1548 0
M  V30 38 H  20.2546 41.2127 87.8798 0
M  V30 39 H  23.0196 41.8658 87.3923 0
M  V30 40 H  24.4596 41.1263 88.8276 0
M  V30 41 H  26.8381 40.6733 89.1034 0
M  V30 42 H  27.9207 38.8509 87.8345 0
M  V30 43 H  26.6264 37.4903 86.2974 0
M  V30 44 H  23.0002 37.8742 85.8536 0
M  V30 45 H  22.8002 34.7823 82.4436 0
M  V30 46 H  27.1269 35.1569 81.8392 0
M  V30 47 H  27.5900 38.0913 84.0116 0
M  V30 48 H  29.7634 39.0284 84.4286 0
M  V30 49 H  31.5868 35.7946 82.2438 0
M  V30 50 H  29.3951 34.8175 81.8736 0
M  V30 51 H  33.1212 36.1426 83.7544 0
M  V30 52 H  34.1738 37.5205 83.6363 0
M  V30 53 H  34.1781 36.5402 85.8861 0
M  V30 54 H  32.4731 36.7629 86.0801 0
M  V30 55 H  31.5285 39.0570 86.1181 0
M  V30 56 H  32.6150 40.4245 85.9953 0
M  V30 57 H  31.5887 40.0678 83.7825 0
M  V30 58 H  33.2902 39.7696 83.7004 0
M  V30 59 H  32.9987 37.8900 88.0378 0
M  V30 60 H  33.3037 39.5921 87.9504 0
M  V30 61 H  35.0671 38.6271 89.2248 0
M  V30 62 H  35.7144 39.3023 87.7779 0
M  V30 63 H  36.8166 37.0978 88.3934 0
M  V30 64 H  36.0105 36.9408 86.8268 0
M  V30 65 H  35.4723 35.0743 88.1613 0
M  V30 66 H  34.1148 35.9622 88.0732 0
M  V30 67 H  34.9933 35.9831 89.4523 0
M  V30 END ATOM
M  V30 BEGIN BOND
M  V30 1 1 1 2
M  V30 2 1 1 36
M  V30 3 1 1 37
M  V30 4 1 1 38
M  V30 5 1 2 3
M  V30 6 1 2 39
M  V30 7 2 3 4
M  V30 8 1 3 5
M  V30 9 2 5 6
M  V30 10 1 5 10
M  V30 11 1 6 7
M  V30 12 1 6 40
M  V30 13 2 7 8
M  V30 14 1 7 41
M  V30 15 1 8 9
M  V30 16 1 8 42
M  V30 17 2 9 10
M  V30 18 1 9 43
M  V30 19 1 10 11
M  V30 20 1 11 12
M  V30 21 1 11 44
M  V30 22 2 12 13
M  V30 23 1 12 17
M  V30 24 1 13 14
M  V30 25 2 14 15
M  V30 26 1 14 19
M  V30 27 1 15 16
M  V30 28 2 16 17
M  V30 29 1 16 45
M  V30 30 1 17 18
M  V30 31 1 19 20
M  V30 32 1 19 46
M  V30 33 2 20 21
M  V30 34 1 20 25
M  V30 35 1 21 22
M  V30 36 1 21 47
M  V30 37 2 22 23
M  V30 38 1 22 48
M  V30 39 1 23 24
M  V30 40 1 23 26
M  V30 41 2 24 25
M  V30 42 1 24 49
M  V30 43 1 25 50
M  V30 44 1 26 27
M  V30 45 1 26 31
M  V30 46 1 27 28
M  V30 47 1 27 51
M  V30 48 1 27 52
M  V30 49 1 28 29
M  V30 50 1 28 53
M  V30 51 1 28 54
M  V30 52 1 29 30
M  V30 53 1 29 32
M  V30 54 1 30 31
M  V30 55 1 30 55
M  V30 56 1 30 56
M  V30 57 1 31 57
M  V30 58 1 31 58
M  V30 59 1 32 33
M  V30 60 1 32 59
M  V30 61 1 32 60
M  V30 62 1 33 34
M  V30 63 1 33 61
M  V30 64 1 33 62
M  V30 65 1 34 35
M  V30 66 1 34 63
M  V30 67 1 34 64
M  V30 68 1 35 65
M  V30 69 1 35 66
M  V30 70 1 35 67
M  V30 END BOND
M  V30 END CTAB
M  END
> <s_m_entry_id>
1166

> <s_m_entry_name>
result.852

> <s_m_Source_Path>
D:\OneDrive - zju.edu.cn\DOC\A-Finished\LCK_VS\Planet\LCK-8617

> <s_m_Source_File>
glide-dock_SP_top1262_2_pv.maegz

> <i_m_Source_File_Index>
1166

> <PLANET_affinity>
7.845

> <i_lp_mmshare_version>
54117

> <i_f3d_flags>
0

> <s_epik_input>
W0NIM11bTkhdQyg9TyljMVtjSF1bY0hdW2NIXVtjSF1jMVtOSF1jMm5jKG5bY0hdYzJDbClbTkhdYzNbY0hdW2NIXWMoW2NIXVtjSF0zKU40W0NIMl1bQ0gyXU4oW0NIMl1bQ0gyXTQpW0NIMl1bQ0gyXVtDSDJdW05IMl0=

> <s_epik_cmdline>
J2VwaWtfcHl0aG9uJywgJy1waCcsICc3LjAnLCAnLXRuJywgJzgnLCAnLW1hJywgJzUwMCcsICctaW1hZScsICc8aW5maWxlLm1hZT4nLCAnLW9tYWUnLCAnPG91dGZpbGUubWFlPic=

> <r_epik_Ionization_Penalty>
  0.3724

> <r_epik_Ionization_Penalty_Charging>
  0.0003

> <r_epik_Ionization_Penalty_Neutral>
  0.3721

> <r_epik_State_Penalty>
  0.3365

> <r_epik_Charging_Adjusted_Penalty>
0.336854

> <i_epik_Tot_Q>
1

> <i_epik_Tot_abs_Q>
1

> <s_lp_Force_Field>
S-OPLS

> <r_lp_Energy>
67.9409

> <b_lp_Chiralities_Consistent>
1

> <s_lp_Variant>
O=C(NC)C1=CC=CC=C1NC2=NC(NC3=CC=C(N4CCN(CCCN)CC4)C=C3)=NC=C2Cl-1

> <s_i_glide_gridfile>
glide-grid_1

> <i_i_glide_lignum>
1457

> <i_i_glide_rotatable_bonds>
10

> <r_i_docking_score>
-7.43059729317691

> <r_i_glide_ligand_efficiency>
-0.212302779805055

> <r_i_glide_ligand_efficiency_sa>
-0.694456469756689

> <r_i_glide_ligand_efficiency_ln>
-1.63118101907397

> <r_i_glide_gscore>
-7.76709729317691

> <r_i_glide_lipo>
-2.38606956524776

> <r_i_glide_hbond>
-0.525139985879919

> <r_i_glide_metal>
0

> <r_i_glide_rewards>
-1.45707782863141

> <r_i_glide_evdw>
-43.083080291748

> <r_i_glide_ecoul>
-10.9425745010376

> <r_i_glide_erotb>
0.464068843212742

> <r_i_glide_esite>
-0.0673385668875201

> <r_i_glide_emodel>
-82.2918736896336

> <r_i_glide_energy>
-54.0256547927856

> <r_i_glide_einternal>
5.89475917816162

> <i_i_glide_confnum>
203

> <i_i_glide_posenum>
248

> <r_i_glide_eff_state_penalty>
0.3365

> <r_lp_tautomer_probability>
1

> <s_m_subgroup_title>
glide-dock_SP_top1262_2_pv

> <s_m_subgroupid>
glide-dock_SP_top1262_2_pv

> <b_m_subgroup_collapsed>
0

$$$$
O=C(N[C@@H](CC1=CC=C(C2=CN3C(C([C@@H](O)C)=CC=C3)=N2)C=C1)CNC(CN(C)C)=O)C4=CC...
                    3D
 Schrodinger Suite 2021-3.
  0  0  0     0  0            999 V3000
M  V30 BEGIN CTAB
M  V30 COUNTS 81 84 0 0 0
M  V30 BEGIN ATOM
M  V30 1 C  27.5192 45.6662 84.0895 0
M  V30 2 C  26.7143 45.0781 85.2671 0
M  V30 3 C  27.3512 45.2776 86.6559 0
M  V30 4 O  26.2599 43.7378 85.0477 0
M  V30 5 C  27.1045 42.6588 84.8443 0
M  V30 6 C  28.5038 42.7031 84.9335 0
M  V30 7 C  29.2767 41.5708 84.6931 0
M  V30 8 C  26.5012 41.4382 84.5144 0
M  V30 9 Cl 24.7781 41.2934 84.4436 0
M  V30 10 C  27.2782 40.3122 84.2417 0
M  V30 11 C  28.6791 40.3603 84.3322 0
M  V30 12 C  29.5418 39.1421 84.0984 0
M  V30 13 O  30.6668 39.0560 84.5931 0
M  V30 14 N  29.0053 38.1758 83.3372 0
M  V30 15 C  29.5239 36.8132 83.1802 0 CFG=2
M  V30 16 C  30.7695 36.8215 82.2430 0
M  V30 17 N  31.4784 35.5581 82.0440 0
M  V30 18 C  32.3810 35.0750 82.9123 0
M  V30 19 O  32.5287 35.5413 84.0420 0
M  V30 20 C  33.2761 33.9293 82.4023 0
M  V30 21 N  33.8392 33.1414 83.5592 0 CHG=1
M  V30 22 C  32.8061 32.1172 84.0757 0
M  V30 23 C  35.1509 32.4326 83.1665 0
M  V30 24 C  28.3913 35.8437 82.7177 0
M  V30 25 C  26.9572 36.0608 83.2507 0
M  V30 26 C  26.7040 36.7567 84.4392 0
M  V30 27 C  25.4050 37.0135 84.8562 0
M  V30 28 C  24.3136 36.5543 84.1132 0
M  V30 29 C  24.5612 35.7880 82.9653 0
M  V30 30 C  25.8710 35.5509 82.5413 0
M  V30 31 C  22.9159 36.9479 84.5075 0
M  V30 32 C  21.7099 36.4453 84.0111 0
M  V30 33 N  22.7029 37.9170 85.3829 0
M  V30 34 C  21.3565 38.0901 85.4602 0
M  V30 35 N  20.7121 37.1875 84.5961 0
M  V30 36 C  20.5734 38.9963 86.2290 0
M  V30 37 C  21.1986 40.0519 87.1595 0 CFG=1
M  V30 38 O  20.2545 40.8110 87.8988 0
M  V30 39 C  22.1699 39.4658 88.1986 0
M  V30 40 C  19.1746 38.9207 86.0756 0
M  V30 41 C  18.5706 38.0235 85.1989 0
M  V30 42 C  19.3537 37.1568 84.4433 0
M  V30 43 H  27.6934 46.7306 84.2312 0
M  V30 44 H  26.9629 45.5554 83.1603 0
M  V30 45 H  28.4908 45.2053 83.9375 0
M  V30 46 H  25.7870 45.6516 85.2968 0
M  V30 47 H  27.6137 46.3234 86.8149 0
M  V30 48 H  26.6452 44.9962 87.4376 0
M  V30 49 H  28.2520 44.6897 86.8091 0
M  V30 50 H  29.0334 43.6060 85.1848 0
M  V30 51 H  30.3507 41.6539 84.7792 0
M  V30 52 H  26.7680 39.3977 83.9825 0
M  V30 53 H  28.0726 38.3274 82.9831 0
M  V30 54 H  29.8413 36.4778 84.1705 0
M  V30 55 H  30.4836 37.1557 81.2475 0
M  V30 56 H  31.4919 37.5621 82.5972 0
M  V30 57 H  31.3849 35.1312 81.1268 0
M  V30 58 H  32.7929 33.2535 81.6976 0
M  V30 59 H  34.1315 34.3849 81.9019 0
M  V30 60 H  32.4884 31.4854 83.2456 0
M  V30 61 H  33.2828 31.5164 84.8425 0
M  V30 62 H  31.9698 32.6801 84.4931 0
M  V30 63 H  34.9406 31.7644 82.3310 0
M  V30 64 H  35.8724 33.2033 82.8961 0
M  V30 65 H  35.4974 31.8839 84.0434 0
M  V30 66 H  28.3213 35.9562 81.6442 0
M  V30 67 H  28.6933 34.8067 82.8774 0
M  V30 68 H  27.5151 37.1177 85.0557 0
M  V30 69 H  25.2497 37.5907 85.7565 0
M  V30 70 H  23.7396 35.4119 82.3727 0
M  V30 71 H  26.0517 34.9889 81.6425 0
M  V30 72 H  21.5171 35.6755 83.2767 0
M  V30 73 H  21.7550 40.7482 86.5307 0
M  V30 74 H  19.8241 41.4337 87.3007 0
M  V30 75 H  23.0274 38.9832 87.7333 0
M  V30 76 H  22.5735 40.2483 88.8453 0
M  V30 77 H  21.6846 38.7317 88.8364 0
M  V30 78 H  18.5250 39.5780 86.6415 0
M  V30 79 H  17.4927 38.0008 85.1136 0
M  V30 80 H  18.9506 36.4409 83.7425 0
M  V30 81 H  34.0697 33.7713 84.3249 0
M  V30 END ATOM
M  V30 BEGIN BOND
M  V30 1 1 1 2
M  V30 2 1 1 43
M  V30 3 1 1 44
M  V30 4 1 1 45
M  V30 5 1 2 3
M  V30 6 1 2 4
M  V30 7 1 2 46
M  V30 8 1 3 47
M  V30 9 1 3 48
M  V30 10 1 3 49
M  V30 11 1 4 5
M  V30 12 2 5 6
M  V30 13 1 5 8
M  V30 14 1 6 7
M  V30 15 1 6 50
M  V30 16 2 7 11
M  V30 17 1 7 51
M  V30 18 1 8 9
M  V30 19 2 8 10
M  V30 20 1 10 11
M  V30 21 1 10 52
M  V30 22 1 11 12
M  V30 23 2 12 13
M  V30 24 1 12 14
M  V30 25 1 14 15
M  V30 26 1 14 53
M  V30 27 1 15 16
M  V30 28 1 15 24
M  V30 29 1 15 54
M  V30 30 1 16 17
M  V30 31 1 16 55
M  V30 32 1 16 56
M  V30 33 1 17 18
M  V30 34 1 17 57
M  V30 35 2 18 19
M  V30 36 1 18 20
M  V30 37 1 20 21
M  V30 38 1 20 58
M  V30 39 1 20 59
M  V30 40 1 21 22
M  V30 41 1 21 23
M  V30 42 1 21 81
M  V30 43 1 22 60
M  V30 44 1 22 61
M  V30 45 1 22 62
M  V30 46 1 23 63
M  V30 47 1 23 64
M  V30 48 1 23 65
M  V30 49 1 24 25
M  V30 50 1 24 66
M  V30 51 1 24 67
M  V30 52 2 25 26
M  V30 53 1 25 30
M  V30 54 1 26 27
M  V30 55 1 26 68
M  V30 56 2 27 28
M  V30 57 1 27 69
M  V30 58 1 28 29
M  V30 59 1 28 31
M  V30 60 2 29 30
M  V30 61 1 29 70
M  V30 62 1 30 71
M  V30 63 2 31 32
M  V30 64 1 31 33
M  V30 65 1 32 35
M  V30 66 1 32 72
M  V30 67 2 33 34
M  V30 68 1 34 35
M  V30 69 1 34 36
M  V30 70 1 35 42
M  V30 71 1 36 37
M  V30 72 2 36 40
M  V30 73 1 37 38
M  V30 74 1 37 39
M  V30 75 1 37 73
M  V30 76 1 38 74
M  V30 77 1 39 75
M  V30 78 1 39 76
M  V30 79 1 39 77
M  V30 80 1 40 41
M  V30 81 1 40 78
M  V30 82 2 41 42
M  V30 83 1 41 79
M  V30 84 1 42 80
M  V30 END BOND
M  V30 END CTAB
M  END
> <s_m_entry_id>
1168

> <s_m_entry_name>
result.903

> <s_m_Source_Path>
D:\OneDrive - zju.edu.cn\DOC\A-Finished\LCK_VS\Planet\LCK-8617

> <s_m_Source_File>
glide-dock_SP_top1262_2_pv.maegz

> <i_m_Source_File_Index>
1168

> <PLANET_affinity>
7.787

> <i_lp_mmshare_version>
54117

> <i_f3d_flags>
0

> <s_epik_input>
W0NIM11bQ0hdKFtDSDNdKU9jMVtjSF1bY0hdYyhbY0hdYzFDbClDKD1PKVtOSF1bQ0BIXShbQ0gyXVtOSF1DKD1PKVtDSDJdTihbQ0gzXSlbQ0gzXSlbQ0gyXWMyW2NIXVtjSF1jKFtjSF1bY0hdMiktYyhuMylbY0hdbihjMzQpW2NIXVtjSF1bY0hdYzRbQ0BASF0oW09IXSlbQ0gzXQ==

> <s_epik_cmdline>
J2VwaWtfcHl0aG9uJywgJy1waCcsICc3LjAnLCAnLXRuJywgJzgnLCAnLW1hJywgJzUwMCcsICctaW1hZScsICc8aW5maWxlLm1hZT4nLCAnLW9tYWUnLCAnPG91dGZpbGUubWFlPic=

> <r_epik_Ionization_Penalty>
  0.1721

> <r_epik_Ionization_Penalty_Charging>
  0.1721

> <r_epik_Ionization_Penalty_Neutral>
  0.0000

> <r_epik_State_Penalty>
  0.1551

> <r_epik_Charging_Adjusted_Penalty>
0.327216

> <i_epik_Tot_Q>
1

> <i_epik_Tot_abs_Q>
1

> <s_lp_Force_Field>
S-OPLS

> <r_lp_Energy>
48.4185

> <b_lp_Chiralities_Consistent>
1

> <s_lp_Variant>
O=C(N[C@@H](CC1=CC=C(C2=CN3C(C([C@@H](O)C)=CC=C3)=N2)C=C1)CNC(CN(C)C)=O)C4=CC...-1

> <s_i_glide_gridfile>
glide-grid_1

> <i_i_glide_lignum>
1525

> <i_i_glide_rotatable_bonds>
15

> <r_i_docking_score>
-7.43005937579384

> <r_i_glide_ligand_efficiency>
-0.176906175614139

> <r_i_glide_ligand_efficiency_sa>
-0.614930579313573

> <r_i_glide_ligand_efficiency_ln>
-1.56829411386563

> <r_i_glide_gscore>
-7.58515937579384

> <r_i_glide_lipo>
-3.10029872809372

> <r_i_glide_hbond>
-0.428002202528106

> <r_i_glide_metal>
0

> <r_i_glide_rewards>
-0.885056033083304

> <r_i_glide_evdw>
-49.4720687866211

> <r_i_glide_ecoul>
-8.24466133117676

> <r_i_glide_erotb>
0.604108709392875

> <r_i_glide_esite>
-0.0656084824740214

> <r_i_glide_emodel>
-82.9655246242242

> <r_i_glide_energy>
-57.7167301177979

> <r_i_glide_einternal>
17.2866973876953

> <i_i_glide_confnum>
55

> <i_i_glide_posenum>
296

> <r_i_glide_eff_state_penalty>
0.1551

> <r_lp_tautomer_probability>
1

> <s_m_subgroup_title>
glide-dock_SP_top1262_2_pv

> <s_m_subgroupid>
glide-dock_SP_top1262_2_pv

> <b_m_subgroup_collapsed>
0

$$$$
FC1=CC2=C(NN=C2NC3=CC=NC4=CC=C(S(=O)(C(C)(C)C)=O)C=C34)C=C1
                    3D
 Schrodinger Suite 2021-3.
  0  0  0     0  0            999 V3000
M  V30 BEGIN CTAB
M  V30 COUNTS 47 50 0 0 0
M  V30 BEGIN ATOM
M  V30 1 F  30.4722 40.3624 82.4439 0
M  V30 2 C  30.0239 40.2965 83.7158 0
M  V30 3 C  28.8453 39.6077 83.9956 0
M  V30 4 C  30.7523 40.9148 84.7286 0
M  V30 5 C  30.3439 40.8790 86.0607 0
M  V30 6 C  29.1637 40.1821 86.3349 0
M  V30 7 C  28.4096 39.5183 85.3298 0
M  V30 8 N  28.4787 39.9731 87.5097 0
M  V30 9 N  27.3750 39.2317 87.3270 0
M  V30 10 C  27.3263 38.9097 86.0610 0
M  V30 11 N  26.2995 38.1148 85.6112 0
M  V30 12 C  26.2022 37.2348 84.5185 0
M  V30 13 C  27.3359 36.7567 83.8506 0
M  V30 14 C  27.1998 35.8100 82.8431 0
M  V30 15 N  26.0119 35.2850 82.4710 0
M  V30 16 C  24.9275 36.7092 84.1364 0
M  V30 17 C  24.8924 35.7182 83.1081 0
M  V30 18 C  23.6945 37.1261 84.7187 0
M  V30 19 C  22.4866 36.5492 84.3267 0
M  V30 20 C  22.4798 35.5592 83.3415 0
M  V30 21 C  23.6590 35.1567 82.7260 0
M  V30 22 S  20.9320 37.1596 85.0045 0
M  V30 23 O  19.8703 36.3722 84.3690 0
M  V30 24 O  20.9535 38.6164 84.8375 0
M  V30 25 C  20.9134 36.7538 86.8858 0
M  V30 26 C  21.8501 37.7105 87.6496 0
M  V30 27 C  21.3440 35.2884 87.0886 0
M  V30 28 C  19.4664 36.9696 87.3830 0
M  V30 29 H  28.2919 39.1494 83.1906 0
M  V30 30 H  31.6501 41.4570 84.4607 0
M  V30 31 H  30.9102 41.3744 86.8351 0
M  V30 32 H  28.7397 40.2899 88.4323 0
M  V30 33 H  25.4607 38.1049 86.1714 0
M  V30 34 H  28.3274 37.0620 84.1445 0
M  V30 35 H  28.0690 35.4213 82.3278 0
M  V30 36 H  23.6913 37.9302 85.4373 0
M  V30 37 H  21.5500 35.1199 83.0050 0
M  V30 38 H  23.6311 34.4163 81.9422 0
M  V30 39 H  21.7785 37.5586 88.7261 0
M  V30 40 H  21.6107 38.7561 87.4492 0
M  V30 41 H  22.8904 37.5614 87.3810 0
M  V30 42 H  20.7799 34.6165 86.4446 0
M  V30 43 H  22.3967 35.1569 86.8464 0
M  V30 44 H  21.1930 34.9513 88.1144 0
M  V30 45 H  18.7552 36.3459 86.8433 0
M  V30 46 H  19.3629 36.7372 88.4430 0
M  V30 47 H  19.1453 38.0023 87.2339 0
M  V30 END ATOM
M  V30 BEGIN BOND
M  V30 1 1 1 2
M  V30 2 2 2 3
M  V30 3 1 2 4
M  V30 4 1 3 7
M  V30 5 1 3 29
M  V30 6 2 4 5
M  V30 7 1 4 30
M  V30 8 1 5 6
M  V30 9 1 5 31
M  V30 10 2 6 7
M  V30 11 1 6 8
M  V30 12 1 7 10
M  V30 13 1 8 9
M  V30 14 1 8 32
M  V30 15 2 9 10
M  V30 16 1 10 11
M  V30 17 1 11 12
M  V30 18 1 11 33
M  V30 19 2 12 13
M  V30 20 1 12 16
M  V30 21 1 13 14
M  V30 22 1 13 34
M  V30 23 2 14 15
M  V30 24 1 14 35
M  V30 25 1 15 17
M  V30 26 2 16 17
M  V30 27 1 16 18
M  V30 28 1 17 21
M  V30 29 2 18 19
M  V30 30 1 18 36
M  V30 31 1 19 20
M  V30 32 1 19 22
M  V30 33 2 20 21
M  V30 34 1 20 37
M  V30 35 1 21 38
M  V30 36 2 22 23
M  V30 37 2 22 24
M  V30 38 1 22 25
M  V30 39 1 25 26
M  V30 40 1 25 27
M  V30 41 1 25 28
M  V30 42 1 26 39
M  V30 43 1 26 40
M  V30 44 1 26 41
M  V30 45 1 27 42
M  V30 46 1 27 43
M  V30 47 1 27 44
M  V30 48 1 28 45
M  V30 49 1 28 46
M  V30 50 1 28 47
M  V30 END BOND
M  V30 END CTAB
M  END
> <s_m_entry_id>
1170

> <s_m_entry_name>
result.7657

> <s_m_Source_Path>
D:\OneDrive - zju.edu.cn\DOC\A-Finished\LCK_VS\Planet\LCK-8617

> <s_m_Source_File>
glide-dock_SP_top1262_2_pv.maegz

> <i_m_Source_File_Index>
1170

> <PLANET_affinity>
7.516

> <i_lp_mmshare_version>
54117

> <i_f3d_flags>
0

> <s_epik_input>
W2NIXTFbY0hdYyhGKVtjSF1jKGMxMiljKG5bbkhdMilbTkhdYzNbY0hdW2NIXW5jKGMzNClbY0hdW2NIXWMoW2NIXTQpUyg9TykoPU8pQyhbQ0gzXSkoW0NIM10pW0NIM10=

> <s_epik_cmdline>
J2VwaWtfcHl0aG9uJywgJy1waCcsICc3LjAnLCAnLXRuJywgJzgnLCAnLW1hJywgJzUwMCcsICctaW1hZScsICc8aW5maWxlLm1hZT4nLCAnLW9tYWUnLCAnPG91dGZpbGUubWFlPic=

> <r_epik_Ionization_Penalty>
  0.0040

> <r_epik_Ionization_Penalty_Charging>
  0.0000

> <r_epik_Ionization_Penalty_Neutral>
  0.0040

> <r_epik_State_Penalty>
  0.0029

> <r_epik_Charging_Adjusted_Penalty>
0.00286508

> <i_epik_Tot_Q>
0

> <i_epik_Tot_abs_Q>
0

> <s_lp_Force_Field>
S-OPLS

> <r_lp_Energy>
35.4842

> <b_lp_Chiralities_Consistent>
1

> <s_lp_Variant>
FC1=CC2=C(NN=C2NC3=CC=NC4=CC=C(S(=O)(C(C)(C)C)=O)C=C34)C=C1-1

> <s_i_glide_gridfile>
glide-grid_1

> <i_i_glide_lignum>
1916

> <i_i_glide_rotatable_bonds>
4

> <r_i_docking_score>
-7.42941963766775

> <r_i_glide_ligand_efficiency>
-0.265336415630991

> <r_i_glide_ligand_efficiency_sa>
-0.805717632647146

> <r_i_glide_ligand_efficiency_ln>
-1.71492818961293

> <r_i_glide_gscore>
-7.43231963766775

> <r_i_glide_lipo>
-3.02706270007551

> <r_i_glide_hbond>
-0.152111901745194

> <r_i_glide_metal>
0

> <r_i_glide_rewards>
-1.5095118962694

> <r_i_glide_evdw>
-38.3794860839844

> <r_i_glide_ecoul>
-7.34508037567139

> <r_i_glide_erotb>
0.370068713276726

> <r_i_glide_esite>
-0.0929654923044423

> <r_i_glide_emodel>
-61.167386959247

> <r_i_glide_energy>
-45.7245664596558

> <r_i_glide_einternal>
8.62509346008301

> <i_i_glide_confnum>
6

> <i_i_glide_posenum>
117

> <r_i_glide_eff_state_penalty>
0.0029

> <s_m_subgroup_title>
glide-dock_SP_top1262_2_pv

> <s_m_subgroupid>
glide-dock_SP_top1262_2_pv

> <b_m_subgroup_collapsed>
0

$$$$
C[C@@]12[C@]([C@@H]3C)([H])[C@](O[C@@]34CC[C@H](C)CN4)([H])C[C@@]1([H])[C@@](...
                    3D
 Schrodinger Suite 2021-3.
  0  0  0     0  0            999 V3000
M  V30 BEGIN CTAB
M  V30 COUNTS 156 165 0 0 0
M  V30 BEGIN ATOM
M  V30 1 N  34.8199 33.6323 83.1268 0 CHG=1
M  V30 2 C  34.9619 32.2030 83.6870 0
M  V30 3 C  35.2826 31.2059 82.5526 0 CFG=1
M  V30 4 C  34.0603 30.9616 81.6431 0
M  V30 5 C  36.5411 31.6481 81.7795 0
M  V30 6 C  36.4201 33.0934 81.2431 0
M  V30 7 C  36.0278 34.1502 82.3200 0 CFG=2
M  V30 8 C  37.1080 34.7216 83.2973 0 CFG=1
M  V30 9 C  38.5541 34.2385 83.0404 0
M  V30 10 C  37.0148 36.2440 83.1090 0 CFG=2
M  V30 11 C  36.2001 37.1317 84.1055 0 CFG=2
M  V30 12 C  34.8942 36.4437 84.6122 0
M  V30 13 C  35.9440 38.3419 83.1776 0 CFG=1
M  V30 14 C  35.5441 37.7377 81.8219 0
M  V30 15 C  36.3352 36.4181 81.7489 0 CFG=2
M  V30 16 O  35.5035 35.2710 81.6095 0
M  V30 17 C  35.0286 39.4006 83.8416 0 CFG=1
M  V30 18 C  35.6697 39.9325 85.1716 0 CFG=2
M  V30 19 C  36.2684 38.7905 86.0720 0
M  V30 20 C  37.0263 37.6819 85.2937 0
M  V30 21 C  34.7360 40.9648 85.9360 0 CFG=1
M  V30 22 C  35.5845 41.6408 87.0550 0
M  V30 23 C  34.2301 42.0791 84.9274 0 CFG=1
M  V30 24 C  33.7521 41.5345 83.5507 0
M  V30 25 C  34.7682 40.5908 82.9064 0
M  V30 26 C  33.1510 43.0123 85.5618 0
M  V30 27 C  31.9647 42.2672 86.2200 0 CFG=2
M  V30 28 C  32.4988 41.2513 87.2428 0
M  V30 29 C  33.4829 40.2696 86.5665 0
M  V30 30 O  31.2184 41.5515 85.2393 0
M  V30 31 C  29.8262 41.6479 85.2498 0 CFG=1
M  V30 32 C  29.3255 40.7865 84.0666 0 CFG=2
M  V30 33 O  29.6830 41.3980 82.8366 0
M  V30 34 C  27.7918 40.5649 84.1144 0 CFG=1
M  V30 35 O  27.3665 39.5538 83.2208 0
M  V30 36 C  27.2179 40.3613 85.5352 0 CFG=2
M  V30 37 C  27.9019 41.3027 86.5521 0 CFG=2
M  V30 38 O  29.3166 41.1427 86.4587 0
M  V30 39 C  27.4492 41.0459 88.0044 0
M  V30 40 O  27.9505 42.0472 88.8643 0
M  V30 41 O  27.2291 39.0181 86.0427 0
M  V30 42 C  26.1973 38.0854 85.7828 0 CFG=2
M  V30 43 O  26.5138 37.3247 84.6405 0
M  V30 44 C  25.6844 36.1595 84.4624 0 CFG=2
M  V30 45 C  26.2426 35.3057 83.2992 0
M  V30 46 O  26.1099 35.9455 82.0437 0
M  V30 47 C  24.2413 36.6214 84.2480 0 CFG=1
M  V30 48 O  23.3347 35.5571 84.0428 0
M  V30 49 C  23.7488 37.5601 85.3626 0 CFG=2
M  V30 50 O  22.4878 38.0844 84.9352 0
M  V30 51 C  21.4596 37.9884 85.8700 0 CFG=2
M  V30 52 O  21.0445 36.6554 86.0306 0
M  V30 53 C  20.1016 36.5251 87.1029 0
M  V30 54 C  18.8278 37.3763 86.8791 0 CFG=1
M  V30 55 O  18.0050 37.3282 88.0347 0
M  V30 56 C  19.2001 38.8215 86.4957 0 CFG=2
M  V30 57 O  18.0775 39.5542 86.0419 0
M  V30 58 C  20.2756 38.8284 85.3849 0 CFG=1
M  V30 59 O  20.6094 40.1657 85.0357 0
M  V30 60 C  24.7668 38.7005 85.6527 0 CFG=1
M  V30 61 O  24.4126 39.4514 86.8403 0
M  V30 62 C  23.6052 40.6005 86.6782 0 CFG=1
M  V30 63 C  22.9673 40.9638 88.0423 0 CFG=2
M  V30 64 O  22.1451 39.9526 88.5834 0
M  V30 65 C  22.1393 42.2712 87.8953 0 CFG=1
M  V30 66 O  21.4842 42.6367 89.1014 0
M  V30 67 C  23.0394 43.3889 87.3361 0 CFG=2
M  V30 68 O  22.4020 44.6550 87.2453 0
M  V30 69 C  23.6596 42.9062 86.0013 0 CFG=2
M  V30 70 O  24.3822 41.6907 86.2447 0
M  V30 71 C  24.6260 43.9158 85.3434 0
M  V30 72 O  25.6764 44.2999 86.2133 0
M  V30 73 H  34.0152 33.6685 82.5153 0
M  V30 74 H  35.7486 32.2627 84.4437 0
M  V30 75 H  34.0155 31.9881 84.1852 0
M  V30 76 H  35.5207 30.2590 83.0461 0
M  V30 77 H  33.7250 31.8807 81.1601 0
M  V30 78 H  34.2877 30.2382 80.8574 0
M  V30 79 H  33.2165 30.5775 82.2156 0
M  V30 80 H  37.4056 31.5517 82.4357 0
M  V30 81 H  36.7238 30.9628 80.9496 0
M  V30 82 H  37.3426 33.3820 80.7434 0
M  V30 83 H  35.6688 33.0937 80.4532 0
M  V30 84 H  36.9004 34.4657 84.3392 0
M  V30 85 H  38.9031 34.5053 82.0427 0
M  V30 86 H  39.2452 34.6868 83.7561 0
M  V30 87 H  38.6598 33.1624 83.1509 0
M  V30 88 H  38.0171 36.6792 83.0357 0
M  V30 89 H  34.2886 37.0886 85.2452 0
M  V30 90 H  34.2414 36.1542 83.7914 0
M  V30 91 H  35.1120 35.5632 85.2172 0
M  V30 92 H  36.8948 38.8520 82.9961 0
M  V30 93 H  34.4684 37.5610 81.7869 0
M  V30 94 H  35.8005 38.3974 80.9943 0
M  V30 95 H  37.0701 36.4341 80.9409 0
M  V30 96 H  34.0691 38.9370 84.0637 0
M  V30 97 H  36.5366 40.4899 84.8148 0
M  V30 98 H  36.9083 39.2067 86.8504 0
M  V30 99 H  35.4665 38.2993 86.6179 0
M  V30 100 H  37.3004 36.8674 85.9669 0
M  V30 101 H  37.9711 38.0977 84.9389 0
M  V30 102 H  35.0769 42.4728 87.5389 0
M  V30 103 H  35.8364 40.9386 87.8525 0
M  V30 104 H  36.5207 42.0385 86.6621 0
M  V30 105 H  35.1026 42.6916 84.7111 0
M  V30 106 H  32.8141 40.9928 83.6402 0
M  V30 107 H  33.5264 42.3658 82.8782 0
M  V30 108 H  35.6963 41.1061 82.6546 0
M  V30 109 H  34.3791 40.2427 81.9505 0
M  V30 110 H  33.6323 43.6122 86.3322 0
M  V30 111 H  32.7934 43.7518 84.8439 0
M  V30 112 H  31.3272 42.9994 86.7230 0
M  V30 113 H  33.0094 41.7792 88.0472 0
M  V30 114 H  31.6681 40.7428 87.7268 0
M  V30 115 H  32.9425 39.6902 85.8187 0
M  V30 116 H  33.7893 39.5371 87.3125 0
M  V30 117 H  29.5398 42.7005 85.1713 0
M  V30 118 H  29.8354 39.8168 84.1349 0
M  V30 119 H  30.3485 42.0873 83.0191 0
M  V30 120 H  27.3329 41.4786 83.7363 0
M  V30 121 H  27.0285 38.8059 83.7418 0
M  V30 122 H  26.2028 40.6991 85.4727 0
M  V30 123 H  27.6332 42.3282 86.3057 0
M  V30 124 H  26.3601 41.0491 88.0740 0
M  V30 125 H  27.7866 40.0698 88.3535 0
M  V30 126 H  28.9113 42.0079 88.8421 0
M  V30 127 H  26.2449 37.3931 86.6245 0
M  V30 128 H  25.6829 35.5394 85.3576 0
M  V30 129 H  27.2934 35.0812 83.4547 0
M  V30 130 H  25.7195 34.3510 83.2466 0
M  V30 131 H  26.7437 35.5605 81.4186 0
M  V30 132 H  24.2731 37.1563 83.3212 0
M  V30 133 H  22.4473 35.9271 84.0021 0
M  V30 134 H  23.6340 36.9712 86.2751 0
M  V30 135 H  21.8431 38.3193 86.8345 0
M  V30 136 H  19.8238 35.4727 87.1638 0
M  V30 137 H  20.5856 36.7502 88.0502 0
M  V30 138 H  18.2531 36.9327 86.0700 0
M  V30 139 H  17.1544 37.7295 87.8260 0
M  V30 140 H  19.5859 39.3472 87.3706 0
M  V30 141 H  17.5294 39.8565 86.7853 0
M  V30 142 H  19.8900 38.3575 84.4765 0
M  V30 143 H  19.8213 40.6952 85.1798 0
M  V30 144 H  24.7685 39.3650 84.7867 0
M  V30 145 H  22.8708 40.4314 85.8954 0
M  V30 146 H  23.7840 41.1128 88.7529 0
M  V30 147 H  21.2884 40.3703 88.7341 0
M  V30 148 H  21.3292 42.0828 87.1839 0
M  V30 149 H  21.2673 43.5754 89.0268 0
M  V30 150 H  23.8515 43.5473 88.0506 0
M  V30 151 H  21.5241 44.5834 86.8452 0
M  V30 152 H  22.8637 42.7088 85.2759 0
M  V30 153 H  25.0559 43.4820 84.4402 0
M  V30 154 H  24.0827 44.8104 85.0373 0
M  V30 155 H  26.1237 43.5053 86.5150 0
M  V30 156 H  34.6408 34.2734 83.8884 0
M  V30 END ATOM
M  V30 BEGIN BOND
M  V30 1 1 1 2
M  V30 2 1 1 7
M  V30 3 1 1 73
M  V30 4 1 1 156
M  V30 5 1 2 3
M  V30 6 1 2 74
M  V30 7 1 2 75
M  V30 8 1 3 4
M  V30 9 1 3 5
M  V30 10 1 3 76
M  V30 11 1 4 77
M  V30 12 1 4 78
M  V30 13 1 4 79
M  V30 14 1 5 6
M  V30 15 1 5 80
M  V30 16 1 5 81
M  V30 17 1 6 7
M  V30 18 1 6 82
M  V30 19 1 6 83
M  V30 20 1 7 8
M  V30 21 1 7 16
M  V30 22 1 8 9
M  V30 23 1 8 10
M  V30 24 1 8 84
M  V30 25 1 9 85
M  V30 26 1 9 86
M  V30 27 1 9 87
M  V30 28 1 10 11
M  V30 29 1 10 15
M  V30 30 1 10 88
M  V30 31 1 11 12
M  V30 32 1 11 13
M  V30 33 1 11 20
M  V30 34 1 12 89
M  V30 35 1 12 90
M  V30 36 1 12 91
M  V30 37 1 13 14
M  V30 38 1 13 17
M  V30 39 1 13 92
M  V30 40 1 14 15
M  V30 41 1 14 93
M  V30 42 1 14 94
M  V30 43 1 15 16
M  V30 44 1 15 95
M  V30 45 1 17 18
M  V30 46 1 17 25
M  V30 47 1 17 96
M  V30 48 1 18 19
M  V30 49 1 18 21
M  V30 50 1 18 97
M  V30 51 1 19 20
M  V30 52 1 19 98
M  V30 53 1 19 99
M  V30 54 1 20 100
M  V30 55 1 20 101
M  V30 56 1 21 22
M  V30 57 1 21 23
M  V30 58 1 21 29
M  V30 59 1 22 102
M  V30 60 1 22 103
M  V30 61 1 22 104
M  V30 62 1 23 24
M  V30 63 1 23 26
M  V30 64 1 23 105
M  V30 65 1 24 25
M  V30 66 1 24 106
M  V30 67 1 24 107
M  V30 68 1 25 108
M  V30 69 1 25 109
M  V30 70 1 26 27
M  V30 71 1 26 110
M  V30 72 1 26 111
M  V30 73 1 27 28
M  V30 74 1 27 30
M  V30 75 1 27 112
M  V30 76 1 28 29
M  V30 77 1 28 113
M  V30 78 1 28 114
M  V30 79 1 29 115
M  V30 80 1 29 116
M  V30 81 1 30 31
M  V30 82 1 31 32
M  V30 83 1 31 38
M  V30 84 1 31 117
M  V30 85 1 32 33
M  V30 86 1 32 34
M  V30 87 1 32 118
M  V30 88 1 33 119
M  V30 89 1 34 35
M  V30 90 1 34 36
M  V30 91 1 34 120
M  V30 92 1 35 121
M  V30 93 1 36 37
M  V30 94 1 36 41
M  V30 95 1 36 122
M  V30 96 1 37 38
M  V30 97 1 37 39
M  V30 98 1 37 123
M  V30 99 1 39 40
M  V30 100 1 39 124
M  V30 101 1 39 125
M  V30 102 1 40 126
M  V30 103 1 41 42
M  V30 104 1 42 43
M  V30 105 1 42 60
M  V30 106 1 42 127
M  V30 107 1 43 44
M  V30 108 1 44 45
M  V30 109 1 44 47
M  V30 110 1 44 128
M  V30 111 1 45 46
M  V30 112 1 45 129
M  V30 113 1 45 130
M  V30 114 1 46 131
M  V30 115 1 47 48
M  V30 116 1 47 49
M  V30 117 1 47 132
M  V30 118 1 48 133
M  V30 119 1 49 50
M  V30 120 1 49 60
M  V30 121 1 49 134
M  V30 122 1 50 51
M  V30 123 1 51 52
M  V30 124 1 51 58
M  V30 125 1 51 135
M  V30 126 1 52 53
M  V30 127 1 53 54
M  V30 128 1 53 136
M  V30 129 1 53 137
M  V30 130 1 54 55
M  V30 131 1 54 56
M  V30 132 1 54 138
M  V30 133 1 55 139
M  V30 134 1 56 57
M  V30 135 1 56 58
M  V30 136 1 56 140
M  V30 137 1 57 141
M  V30 138 1 58 59
M  V30 139 1 58 142
M  V30 140 1 59 143
M  V30 141 1 60 61
M  V30 142 1 60 144
M  V30 143 1 61 62
M  V30 144 1 62 63
M  V30 145 1 62 70
M  V30 146 1 62 145
M  V30 147 1 63 64
M  V30 148 1 63 65
M  V30 149 1 63 146
M  V30 150 1 64 147
M  V30 151 1 65 66
M  V30 152 1 65 67
M  V30 153 1 65 148
M  V30 154 1 66 149
M  V30 155 1 67 68
M  V30 156 1 67 69
M  V30 157 1 67 150
M  V30 158 1 68 151
M  V30 159 1 69 70
M  V30 160 1 69 71
M  V30 161 1 69 152
M  V30 162 1 71 72
M  V30 163 1 71 153
M  V30 164 1 71 154
M  V30 165 1 72 155
M  V30 END BOND
M  V30 END CTAB
M  END
> <s_m_entry_id>
1187

> <s_m_entry_name>
result.3457

> <s_m_Source_Path>
D:\OneDrive - zju.edu.cn\DOC\A-Finished\LCK_VS\Planet\LCK-8617

> <s_m_Source_File>
glide-dock_SP_top1262_2_pv.maegz

> <i_m_Source_File_Index>
1187

> <PLANET_affinity>
7.079

> <i_lp_mmshare_version>
54117

> <i_f3d_flags>
0

> <s_epik_input>
W0NIMl0xW0NIMl1bQ0BIXShbQ0gzXSlbQ0gyXVtOSF1bQ0BAXTEyW0NAQEhdKFtDSDNdKVtDQEBIXTNbQ0BdNChbQ0gzXSlbQ0BASF0oW0NIMl1bQ0BASF0zTzIpW0NASF01W0NASF0oW0NIMl1bQ0gyXTQpW0NAQF02KFtDSDNdKVtDQEBIXShbQ0gyXVtDSDJdNSlbQ0gyXVtDQEhdKFtDSDJdW0NIMl02KU9bQ0BIXTdbQ0BIXShbT0hdKVtDQEBIXShbT0hdKVtDQEhdKFtDQEhdKE83KVtDSDJdW09IXSlPW0NAQEhdOE9bQ0BIXShbQ0gyXVtPSF0pW0NAQEhdKFtPSF0pW0NASF0oT1tDQEBIXTlPW0NIMl1bQ0BASF0oW09IXSlbQ0BIXShbT0hdKVtDQEhdOVtPSF0pW0NASF04T1tDQEhdMVtDQEhdKFtPSF0pW0NAQEhdKFtPSF0pW0NASF0oW09IXSlbQ0BIXShPMSlbQ0gyXVtPSF0=

> <s_epik_cmdline>
J2VwaWtfcHl0aG9uJywgJy1waCcsICc3LjAnLCAnLXRuJywgJzgnLCAnLW1hJywgJzUwMCcsICctaW1hZScsICc8aW5maWxlLm1hZT4nLCAnLW9tYWUnLCAnPG91dGZpbGUubWFlPic=

> <r_epik_Ionization_Penalty>
  0.0039

> <r_epik_Ionization_Penalty_Charging>
  0.0039

> <r_epik_Ionization_Penalty_Neutral>
  0.0000

> <r_epik_State_Penalty>
  0.0028

> <r_epik_Charging_Adjusted_Penalty>
0.00663057

> <i_epik_Tot_Q>
1

> <i_epik_Tot_abs_Q>
1

> <s_epik_Chemistry_Notes>
This compound contains an acetal/aminal-like group ( X-CH(R)-Y where X, Y are N, S, or O) that may be acid/base labile, releasing an aldehyde.

> <s_lp_Force_Field>
S-OPLS

> <r_lp_Energy>
101.426

> <b_lp_Chiralities_Consistent>
1

> <s_lp_Variant>
C[C@@]12[C@]([C@@H]3C)([H])[C@](O[C@@]34CC[C@H](C)CN4)([H])C[C@@]1([H])[C@@](...-1

> <s_i_glide_gridfile>
glide-grid_1

> <i_i_glide_lignum>
2568

> <i_i_glide_rotatable_bonds>
23

> <r_i_docking_score>
-7.42268119071496

> <r_i_glide_ligand_efficiency>
-0.103092794315486

> <r_i_glide_ligand_efficiency_sa>
-0.42888330684632

> <r_i_glide_ligand_efficiency_ln>
-1.40669904505898

> <r_i_glide_gscore>
-7.42548119071496

> <r_i_glide_lipo>
-1.67224413832703

> <r_i_glide_hbond>
0

> <r_i_glide_metal>
0

> <r_i_glide_rewards>
-0.381326941096113

> <r_i_glide_evdw>
-40.0486946105957

> <r_i_glide_ecoul>
-21.9787559509277

> <r_i_glide_erotb>
0.00617276737756211

> <r_i_glide_esite>
-0.0788347555004307

> <r_i_glide_emodel>
-63.5498429240051

> <r_i_glide_energy>
-62.0274505615234

> <r_i_glide_einternal>
68.4395599365234

> <i_i_glide_confnum>
541

> <i_i_glide_posenum>
209

> <r_i_glide_eff_state_penalty>
0.0028

> <s_m_subgroup_title>
glide-dock_SP_top1262_2_pv

> <s_m_subgroupid>
glide-dock_SP_top1262_2_pv

> <b_m_subgroup_collapsed>
0

$$$$
OCCN1CCN(C2=C(F)C(F)=C(NC3=NC=C4C(C(C5=CC(NC(C=C)=O)=CC=C5)=CC=C4)=N3)C=C2)CC1
                    3D
 Schrodinger Suite 2021-3.
  0  0  0     0  0            999 V3000
M  V30 BEGIN CTAB
M  V30 COUNTS 67 71 0 0 0
M  V30 BEGIN ATOM
M  V30 1 O  23.6388 41.9577 95.6058 0
M  V30 2 C  22.8817 41.4097 94.5454 0
M  V30 3 C  23.0751 42.1979 93.2292 0
M  V30 4 N  24.4367 42.1810 92.6764 0
M  V30 5 C  24.9197 40.8270 92.3924 0
M  V30 6 C  26.3757 40.8843 91.9024 0
M  V30 7 N  26.5138 41.6598 90.6587 0
M  V30 8 C  25.9098 42.9920 90.8285 0
M  V30 9 C  24.4752 42.9420 91.4196 0
M  V30 10 C  26.7791 41.0927 89.4152 0
M  V30 11 C  27.6088 41.7373 88.4844 0
M  V30 12 F  28.1031 42.9731 88.7402 0
M  V30 13 C  27.9749 41.0962 87.2939 0
M  V30 14 F  28.7909 41.7386 86.4221 0
M  V30 15 C  27.5230 39.8010 87.0129 0
M  V30 16 C  26.6751 39.1695 87.9282 0
M  V30 17 C  26.3146 39.8078 89.1104 0
M  V30 18 N  27.9303 39.1691 85.8254 0
M  V30 19 C  27.3010 38.2298 85.0013 0
M  V30 20 N  28.0852 37.7031 84.0306 0
M  V30 21 C  27.4898 36.8056 83.2122 0
M  V30 22 N  25.9879 37.9399 85.2041 0
M  V30 23 C  25.3817 37.0494 84.3604 0
M  V30 24 C  26.1308 36.4341 83.3101 0
M  V30 25 C  23.9947 36.7144 84.5214 0
M  V30 26 C  23.4333 35.7783 83.6435 0
M  V30 27 C  24.1716 35.1942 82.6202 0
M  V30 28 C  25.5129 35.5141 82.4437 0
M  V30 29 C  23.1361 37.3195 85.5836 0
M  V30 30 C  23.1113 38.7057 85.7903 0
M  V30 31 C  22.3192 39.2820 86.7869 0
M  V30 32 C  21.5586 38.4447 87.6158 0
M  V30 33 C  21.5518 37.0659 87.4066 0
M  V30 34 C  22.3245 36.5112 86.3904 0
M  V30 35 N  22.3374 40.6864 86.8613 0
M  V30 36 C  21.5844 41.5211 87.6118 0
M  V30 37 O  20.7558 41.1577 88.4461 0
M  V30 38 C  21.8264 42.9260 87.3835 0
M  V30 39 C  22.1267 43.4652 86.1809 0
M  V30 40 H  24.3219 41.3062 95.8204 0
M  V30 41 H  21.8328 41.4330 94.8254 0
M  V30 42 H  23.1065 40.3492 94.4309 0
M  V30 43 H  22.6572 43.2021 93.3284 0
M  V30 44 H  22.4224 41.7282 92.4911 0
M  V30 45 H  24.2782 40.3564 91.6451 0
M  V30 46 H  24.8973 40.2039 93.2855 0
M  V30 47 H  26.7365 39.8665 91.7629 0
M  V30 48 H  27.0191 41.3247 92.6668 0
M  V30 49 H  26.5630 43.6016 91.4538 0
M  V30 50 H  25.8586 43.4989 89.8638 0
M  V30 51 H  24.1373 43.9619 91.6098 0
M  V30 52 H  23.7874 42.5177 90.6859 0
M  V30 53 H  26.3139 38.1679 87.7445 0
M  V30 54 H  25.6813 39.2807 89.8061 0
M  V30 55 H  28.8493 39.4323 85.5035 0
M  V30 56 H  28.1123 36.3739 82.4400 0
M  V30 57 H  22.3912 35.5036 83.7385 0
M  V30 58 H  23.6854 34.4926 81.9571 0
M  V30 59 H  26.0887 35.0702 81.6446 0
M  V30 60 H  23.7137 39.3417 85.1560 0
M  V30 61 H  20.9591 38.8348 88.4216 0
M  V30 62 H  20.9499 36.4256 88.0347 0
M  V30 63 H  22.3053 35.4408 86.2451 0
M  V30 64 H  22.9869 41.1362 86.2345 0
M  V30 65 H  21.7148 43.5612 88.2496 0
M  V30 66 H  22.2262 42.8806 85.2769 0
M  V30 67 H  22.2702 44.5329 86.0867 0
M  V30 END ATOM
M  V30 BEGIN BOND
M  V30 1 1 1 2
M  V30 2 1 1 40
M  V30 3 1 2 3
M  V30 4 1 2 41
M  V30 5 1 2 42
M  V30 6 1 3 4
M  V30 7 1 3 43
M  V30 8 1 3 44
M  V30 9 1 4 5
M  V30 10 1 4 9
M  V30 11 1 5 6
M  V30 12 1 5 45
M  V30 13 1 5 46
M  V30 14 1 6 7
M  V30 15 1 6 47
M  V30 16 1 6 48
M  V30 17 1 7 8
M  V30 18 1 7 10
M  V30 19 1 8 9
M  V30 20 1 8 49
M  V30 21 1 8 50
M  V30 22 1 9 51
M  V30 23 1 9 52
M  V30 24 2 10 11
M  V30 25 1 10 17
M  V30 26 1 11 12
M  V30 27 1 11 13
M  V30 28 1 13 14
M  V30 29 2 13 15
M  V30 30 1 15 16
M  V30 31 1 15 18
M  V30 32 2 16 17
M  V30 33 1 16 53
M  V30 34 1 17 54
M  V30 35 1 18 19
M  V30 36 1 18 55
M  V30 37 2 19 20
M  V30 38 1 19 22
M  V30 39 1 20 21
M  V30 40 2 21 24
M  V30 41 1 21 56
M  V30 42 2 22 23
M  V30 43 1 23 24
M  V30 44 1 23 25
M  V30 45 1 24 28
M  V30 46 2 25 26
M  V30 47 1 25 29
M  V30 48 1 26 27
M  V30 49 1 26 57
M  V30 50 2 27 28
M  V30 51 1 27 58
M  V30 52 1 28 59
M  V30 53 2 29 30
M  V30 54 1 29 34
M  V30 55 1 30 31
M  V30 56 1 30 60
M  V30 57 2 31 32
M  V30 58 1 31 35
M  V30 59 1 32 33
M  V30 60 1 32 61
M  V30 61 2 33 34
M  V30 62 1 33 62
M  V30 63 1 34 63
M  V30 64 1 35 36
M  V30 65 1 35 64
M  V30 66 2 36 37
M  V30 67 1 36 38
M  V30 68 2 38 39
M  V30 69 1 38 65
M  V30 70 1 39 66
M  V30 71 1 39 67
M  V30 END BOND
M  V30 END CTAB
M  END
> <s_m_entry_id>
1190

> <s_m_entry_name>
result.2086

> <s_m_Source_Path>
D:\OneDrive - zju.edu.cn\DOC\A-Finished\LCK_VS\Planet\LCK-8617

> <s_m_Source_File>
glide-dock_SP_top1262_2_pv.maegz

> <i_m_Source_File_Index>
1190

> <PLANET_affinity>
8.277

> <i_lp_mmshare_version>
54117

> <i_f3d_flags>
0

> <s_epik_input>
W09IXVtDSDJdW0NIMl1OMVtDSDJdW0NIMl1OKFtDSDJdW0NIMl0xKWMyYyhGKWMoRiljKFtjSF1bY0hdMilbTkhdYyhuMyluW2NIXWMoYzM0KVtjSF1bY0hdW2NIXWM0LWM1W2NIXWMoW2NIXVtjSF1bY0hdNSlbTkhdQyg9TylbQ0hdPVtDSDJd

> <s_epik_cmdline>
J2VwaWtfcHl0aG9uJywgJy1waCcsICc3LjAnLCAnLXRuJywgJzgnLCAnLW1hJywgJzUwMCcsICctaW1hZScsICc8aW5maWxlLm1hZT4nLCAnLW9tYWUnLCAnPG91dGZpbGUubWFlPic=

> <r_epik_Ionization_Penalty>
  0.7338

> <r_epik_Ionization_Penalty_Charging>
  0.0000

> <r_epik_Ionization_Penalty_Neutral>
  0.7338

> <r_epik_State_Penalty>
  0.7575

> <r_epik_Charging_Adjusted_Penalty>
0.757478

> <i_epik_Tot_Q>
0

> <i_epik_Tot_abs_Q>
0

> <s_lp_Force_Field>
S-OPLS

> <r_lp_Energy>
81.7352

> <b_lp_Chiralities_Consistent>
1

> <s_lp_Variant>
OCCN1CCN(C2=C(F)C(F)=C(NC3=NC=C4C(C(C5=CC(NC(C=C)=O)=CC=C5)=CC=C4)=N3)C=C2)CC1-2

> <s_i_glide_gridfile>
glide-grid_1

> <i_i_glide_lignum>
991

> <i_i_glide_rotatable_bonds>
10

> <r_i_docking_score>
-7.42132752101145

> <r_i_glide_ligand_efficiency>
-0.190290449256704

> <r_i_glide_ligand_efficiency_sa>
-0.64531514822759

> <r_i_glide_ligand_efficiency_ln>
-1.59134328741435

> <r_i_glide_gscore>
-8.17882752101145

> <r_i_glide_lipo>
-4.02537176263313

> <r_i_glide_hbond>
-0.626348753186588

> <r_i_glide_metal>
0

> <r_i_glide_rewards>
-0.455448892261975

> <r_i_glide_evdw>
-44.685604095459

> <r_i_glide_ecoul>
-9.6852331161499

> <r_i_glide_erotb>
0.659075201826509

> <r_i_glide_esite>
-0.0436681425608248

> <r_i_glide_emodel>
-76.6216226886509

> <r_i_glide_energy>
-54.3708372116089

> <r_i_glide_einternal>
11.658052444458

> <i_i_glide_confnum>
288

> <i_i_glide_posenum>
238

> <r_i_glide_eff_state_penalty>
0.7575

> <s_m_subgroup_title>
glide-dock_SP_top1262_2_pv

> <s_m_subgroupid>
glide-dock_SP_top1262_2_pv

> <b_m_subgroup_collapsed>
0

$$$$
O=C(NC1=NC=C(N2CCN(C(C)=O)CC2)C=C1)CC3=CN=C(C4=CC(F)=NC=C4)C(C)=C3
                    3D
 Schrodinger Suite 2021-3.
  0  0  0     0  0            999 V3000
M  V30 BEGIN CTAB
M  V30 COUNTS 58 61 0 0 0
M  V30 BEGIN ATOM
M  V30 1 C  34.3030 40.8085 80.7189 0
M  V30 2 C  35.2763 41.7699 80.4466 0
M  V30 3 N  36.4723 41.8041 81.0834 0
M  V30 4 C  36.7227 40.8547 82.0204 0
M  V30 5 F  37.9137 40.8688 82.6594 0
M  V30 6 C  35.7953 39.8624 82.3453 0
M  V30 7 C  34.5545 39.8309 81.6936 0
M  V30 8 C  33.5350 38.7891 82.0099 0
M  V30 9 C  33.0882 38.4804 83.3106 0
M  V30 10 C  33.5919 39.2101 84.5479 0
M  V30 11 C  32.0946 37.5038 83.4575 0
M  V30 12 N  33.0412 38.1480 80.9178 0
M  V30 13 C  32.0830 37.2091 81.0912 0
M  V30 14 C  31.5424 36.8748 82.3329 0
M  V30 15 C  30.4238 35.8246 82.4195 0
M  V30 16 C  29.1834 36.2487 83.2320 0
M  V30 17 O  29.3374 36.7667 84.3349 0
M  V30 18 N  27.9742 35.9562 82.6951 0
M  V30 19 C  26.6877 36.1506 83.2433 0
M  V30 20 N  25.6792 35.5463 82.5594 0
M  V30 21 C  24.4128 35.6294 83.0537 0
M  V30 22 C  24.0860 36.2979 84.2450 0
M  V30 23 C  25.1374 36.9199 84.9271 0
M  V30 24 C  26.4346 36.8681 84.4251 0
M  V30 25 N  22.7851 36.3547 84.7386 0
M  V30 26 C  22.4862 36.5354 86.1706 0
M  V30 27 C  21.0605 36.1124 86.5766 0
M  V30 28 N  20.1015 36.9143 85.7872 0
M  V30 29 C  19.0715 37.5372 86.4247 0
M  V30 30 O  18.8613 37.4186 87.6336 0
M  V30 31 C  18.0440 38.3242 85.6047 0
M  V30 32 C  20.4227 37.2490 84.3808 0
M  V30 33 C  21.6041 36.3850 83.8595 0
M  V30 34 H  33.3619 40.8254 80.1877 0
M  V30 35 H  35.1005 42.5368 79.7053 0
M  V30 36 H  36.0458 39.1212 83.0893 0
M  V30 37 H  32.8727 39.1511 85.3668 0
M  V30 38 H  34.5405 38.7931 84.8859 0
M  V30 39 H  33.7322 40.2713 84.3400 0
M  V30 40 H  31.7402 37.2563 84.4472 0
M  V30 41 H  31.7147 36.7532 80.1856 0
M  V30 42 H  30.1288 35.4931 81.4226 0
M  V30 43 H  30.8313 34.9516 82.9306 0
M  V30 44 H  27.9731 35.5174 81.7839 0
M  V30 45 H  23.6498 35.1215 82.4817 0
M  V30 46 H  24.9579 37.4653 85.8419 0
M  V30 47 H  27.2030 37.3765 84.9832 0
M  V30 48 H  23.2056 36.0122 86.8040 0
M  V30 49 H  22.5737 37.6041 86.3725 0
M  V30 50 H  20.9094 35.0411 86.4355 0
M  V30 51 H  20.9751 36.3174 87.6458 0
M  V30 52 H  17.5800 37.6832 84.8545 0
M  V30 53 H  17.2545 38.7092 86.2526 0
M  V30 54 H  18.5127 39.1761 85.1126 0
M  V30 55 H  20.7293 38.2944 84.3127 0
M  V30 56 H  19.5723 37.0549 83.7249 0
M  V30 57 H  21.8794 36.7096 82.8561 0
M  V30 58 H  21.2829 35.3522 83.7698 0
M  V30 END ATOM
M  V30 BEGIN BOND
M  V30 1 2 1 2
M  V30 2 1 1 7
M  V30 3 1 1 34
M  V30 4 1 2 3
M  V30 5 1 2 35
M  V30 6 2 3 4
M  V30 7 1 4 5
M  V30 8 1 4 6
M  V30 9 2 6 7
M  V30 10 1 6 36
M  V30 11 1 7 8
M  V30 12 2 8 9
M  V30 13 1 8 12
M  V30 14 1 9 10
M  V30 15 1 9 11
M  V30 16 1 10 37
M  V30 17 1 10 38
M  V30 18 1 10 39
M  V30 19 2 11 14
M  V30 20 1 11 40
M  V30 21 2 12 13
M  V30 22 1 13 14
M  V30 23 1 13 41
M  V30 24 1 14 15
M  V30 25 1 15 16
M  V30 26 1 15 42
M  V30 27 1 15 43
M  V30 28 2 16 17
M  V30 29 1 16 18
M  V30 30 1 18 19
M  V30 31 1 18 44
M  V30 32 2 19 20
M  V30 33 1 19 24
M  V30 34 1 20 21
M  V30 35 2 21 22
M  V30 36 1 21 45
M  V30 37 1 22 23
M  V30 38 1 22 25
M  V30 39 2 23 24
M  V30 40 1 23 46
M  V30 41 1 24 47
M  V30 42 1 25 26
M  V30 43 1 25 33
M  V30 44 1 26 27
M  V30 45 1 26 48
M  V30 46 1 26 49
M  V30 47 1 27 28
M  V30 48 1 27 50
M  V30 49 1 27 51
M  V30 50 1 28 29
M  V30 51 1 28 32
M  V30 52 2 29 30
M  V30 53 1 29 31
M  V30 54 1 31 52
M  V30 55 1 31 53
M  V30 56 1 31 54
M  V30 57 1 32 33
M  V30 58 1 32 55
M  V30 59 1 32 56
M  V30 60 1 33 57
M  V30 61 1 33 58
M  V30 END BOND
M  V30 END CTAB
M  END
> <s_m_entry_id>
1192

> <s_m_entry_name>
result.2460

> <s_m_Source_Path>
D:\OneDrive - zju.edu.cn\DOC\A-Finished\LCK_VS\Planet\LCK-8617

> <s_m_Source_File>
glide-dock_SP_top1262_2_pv.maegz

> <i_m_Source_File_Index>
1192

> <PLANET_affinity>
7.012

> <i_lp_mmshare_version>
54117

> <i_f3d_flags>
0

> <s_epik_input>
RmMxbltjSF1bY0hdYyhbY0hdMSktYzJjKFtDSDNdKVtjSF1jKFtjSF1uMilbQ0gyXUMoPU8pW05IXWMzbltjSF1jKFtjSF1bY0hdMylONFtDSDJdW0NIMl1OKEMoPU8pW0NIM10pW0NIMl1bQ0gyXTQ=

> <s_epik_cmdline>
J2VwaWtfcHl0aG9uJywgJy1waCcsICc3LjAnLCAnLXRuJywgJzgnLCAnLW1hJywgJzUwMCcsICctaW1hZScsICc8aW5maWxlLm1hZT4nLCAnLW9tYWUnLCAnPG91dGZpbGUubWFlPic=

> <r_epik_Ionization_Penalty>
  0.0157

> <r_epik_Ionization_Penalty_Charging>
  0.0000

> <r_epik_Ionization_Penalty_Neutral>
  0.0157

> <r_epik_State_Penalty>
  0.0117

> <r_epik_Charging_Adjusted_Penalty>
0.0117294

> <i_epik_Tot_Q>
0

> <i_epik_Tot_abs_Q>
0

> <s_lp_Force_Field>
S-OPLS

> <r_lp_Energy>
70.736

> <b_lp_Chiralities_Consistent>
1

> <s_lp_Variant>
O=C(NC1=NC=C(N2CCN(C(C)=O)CC2)C=C1)CC3=CN=C(C4=CC(F)=NC=C4)C(C)=C3-1

> <s_i_glide_gridfile>
glide-grid_1

> <i_i_glide_lignum>
2701

> <i_i_glide_rotatable_bonds>
7

> <r_i_docking_score>
-7.42098509106951

> <r_i_glide_ligand_efficiency>
-0.224878336093016

> <r_i_glide_ligand_efficiency_sa>
-0.721304982250004

> <r_i_glide_ligand_efficiency_ln>
-1.65038866044946

> <r_i_glide_gscore>
-7.43268509106951

> <r_i_glide_lipo>
-2.9707086172027

> <r_i_glide_hbond>
-0.31852616587354

> <r_i_glide_metal>
0

> <r_i_glide_rewards>
-1.7581694154303

> <r_i_glide_evdw>
-43.0805015563965

> <r_i_glide_ecoul>
-4.29643821716309

> <r_i_glide_erotb>
0.418301227589392

> <r_i_glide_esite>
-0.00509130975808882

> <r_i_glide_emodel>
-70.4113228942162

> <r_i_glide_energy>
-47.3769397735596

> <r_i_glide_einternal>
1.62912595272064

> <i_i_glide_confnum>
340

> <i_i_glide_posenum>
174

> <r_i_glide_eff_state_penalty>
0.0117

> <r_lp_tautomer_probability>
1

> <s_m_subgroup_title>
glide-dock_SP_top1262_2_pv

> <s_m_subgroupid>
glide-dock_SP_top1262_2_pv

> <b_m_subgroup_collapsed>
0

$$$$
O=C(N1[C@@H](C)CN(CC2CCOCC2)[C@H](C)C1)N(C3)C(C)(C)C4=C3C(NC5=NC(C)=NC=C5F)=NN4
                    3D
 Schrodinger Suite 2021-3.
  0  0  0     0  0            999 V3000
M  V30 BEGIN CTAB
M  V30 COUNTS 74 78 0 0 0
M  V30 BEGIN ATOM
M  V30 1 C  24.4682 46.2537 86.7326 0
M  V30 2 C  23.7521 47.4266 86.0263 0
M  V30 3 O  22.7843 47.9992 86.9018 0
M  V30 4 C  21.7512 47.0917 87.2813 0
M  V30 5 C  22.3638 45.8986 88.0515 0
M  V30 6 C  23.4759 45.1799 87.2480 0
M  V30 7 C  22.8815 44.3436 86.0787 0
M  V30 8 N  23.2913 42.8568 86.1571 0 CHG=1 CFG=2
M  V30 9 C  23.1500 42.1126 84.8033 0 CFG=2
M  V30 10 C  21.6884 42.0669 84.2796 0
M  V30 11 C  23.8058 40.7278 84.9756 0
M  V30 12 C  22.5562 42.0974 87.2880 0
M  V30 13 C  23.1108 40.6471 87.4270 0 CFG=2
M  V30 14 C  24.4654 40.5935 88.1635 0
M  V30 15 N  23.1582 39.9996 86.0900 0
M  V30 16 C  22.3942 38.9012 85.8499 0
M  V30 17 O  21.2299 38.8613 86.2521 0
M  V30 18 N  22.9701 37.8602 85.1717 0
M  V30 19 C  22.2479 36.6264 84.7495 0
M  V30 20 C  21.9059 35.7779 85.9933 0
M  V30 21 C  21.0006 36.8685 83.8606 0
M  V30 22 C  24.4363 37.6733 85.0254 0
M  V30 23 C  24.5403 36.5461 84.0426 0
M  V30 24 C  23.3180 35.9723 83.9129 0
M  V30 25 C  25.3996 35.8619 83.1568 0
M  V30 26 N  24.7180 34.9488 82.4941 0
M  V30 27 N  23.4502 35.0465 82.9198 0
M  V30 28 N  26.7411 36.0009 82.8874 0
M  V30 29 C  27.6176 37.0377 83.2441 0
M  V30 30 N  27.1274 38.2801 83.5154 0
M  V30 31 C  28.0344 39.2425 83.8257 0
M  V30 32 C  27.4996 40.6362 84.0881 0
M  V30 33 N  29.3797 39.0773 83.9109 0
M  V30 34 C  29.8413 37.8272 83.6441 0
M  V30 35 C  28.9941 36.7736 83.2949 0
M  V30 36 F  29.4994 35.5520 83.0135 0
M  V30 37 H  25.1984 45.8081 86.0545 0
M  V30 38 H  25.0419 46.6550 87.5701 0
M  V30 39 H  23.2809 47.1050 85.0946 0
M  V30 40 H  24.4750 48.1964 85.7550 0
M  V30 41 H  21.1991 46.7552 86.4036 0
M  V30 42 H  21.0301 47.6209 87.9064 0
M  V30 43 H  22.7744 46.2673 88.9923 0
M  V30 44 H  21.5731 45.1954 88.3231 0
M  V30 45 H  24.0269 44.5497 87.9498 0
M  V30 46 H  21.7895 44.3597 86.0447 0
M  V30 47 H  23.2829 44.6798 85.1178 0
M  V30 48 H  23.7582 42.6827 84.0966 0
M  V30 49 H  21.6480 41.5154 83.3403 0
M  V30 50 H  21.0132 41.5565 84.9654 0
M  V30 51 H  21.3040 43.0653 84.0568 0
M  V30 52 H  23.7780 40.1709 84.0419 0
M  V30 53 H  24.8460 40.8591 85.2746 0
M  V30 54 H  22.6997 42.6737 88.2038 0
M  V30 55 H  21.4884 42.1186 87.0624 0
M  V30 56 H  22.4075 40.0990 88.0581 0
M  V30 57 H  24.4068 41.1220 89.1155 0
M  V30 58 H  24.7523 39.5665 88.3941 0
M  V30 59 H  25.2675 41.0640 87.5955 0
M  V30 60 H  21.6827 34.7557 85.7161 0
M  V30 61 H  22.7319 35.7438 86.7043 0
M  V30 62 H  21.0383 36.1705 86.5216 0
M  V30 63 H  20.4206 35.9576 83.7278 0
M  V30 64 H  20.3254 37.6226 84.2604 0
M  V30 65 H  21.2828 37.1571 82.8529 0
M  V30 66 H  24.9411 38.5627 84.6647 0
M  V30 67 H  24.8746 37.4170 85.9907 0
M  V30 68 H  22.7047 34.4649 82.5520 0
M  V30 69 H  27.2234 35.2602 82.3981 0
M  V30 70 H  26.5739 40.8178 83.5403 0
M  V30 71 H  27.3079 40.7641 85.1537 0
M  V30 72 H  28.2155 41.3962 83.7724 0
M  V30 73 H  30.9097 37.6799 83.7010 0
M  V30 74 H  24.2760 42.8464 86.3829 0
M  V30 END ATOM
M  V30 BEGIN BOND
M  V30 1 1 1 2
M  V30 2 1 1 6
M  V30 3 1 1 37
M  V30 4 1 1 38
M  V30 5 1 2 3
M  V30 6 1 2 39
M  V30 7 1 2 40
M  V30 8 1 3 4
M  V30 9 1 4 5
M  V30 10 1 4 41
M  V30 11 1 4 42
M  V30 12 1 5 6
M  V30 13 1 5 43
M  V30 14 1 5 44
M  V30 15 1 6 7
M  V30 16 1 6 45
M  V30 17 1 7 8
M  V30 18 1 7 46
M  V30 19 1 7 47
M  V30 20 1 8 9
M  V30 21 1 8 12
M  V30 22 1 8 74
M  V30 23 1 9 10
M  V30 24 1 9 11
M  V30 25 1 9 48
M  V30 26 1 10 49
M  V30 27 1 10 50
M  V30 28 1 10 51
M  V30 29 1 11 15
M  V30 30 1 11 52
M  V30 31 1 11 53
M  V30 32 1 12 13
M  V30 33 1 12 54
M  V30 34 1 12 55
M  V30 35 1 13 14
M  V30 36 1 13 15
M  V30 37 1 13 56
M  V30 38 1 14 57
M  V30 39 1 14 58
M  V30 40 1 14 59
M  V30 41 1 15 16
M  V30 42 2 16 17
M  V30 43 1 16 18
M  V30 44 1 18 19
M  V30 45 1 18 22
M  V30 46 1 19 20
M  V30 47 1 19 21
M  V30 48 1 19 24
M  V30 49 1 20 60
M  V30 50 1 20 61
M  V30 51 1 20 62
M  V30 52 1 21 63
M  V30 53 1 21 64
M  V30 54 1 21 65
M  V30 55 1 22 23
M  V30 56 1 22 66
M  V30 57 1 22 67
M  V30 58 2 23 24
M  V30 59 1 23 25
M  V30 60 1 24 27
M  V30 61 2 25 26
M  V30 62 1 25 28
M  V30 63 1 26 27
M  V30 64 1 27 68
M  V30 65 1 28 29
M  V30 66 1 28 69
M  V30 67 2 29 30
M  V30 68 1 29 35
M  V30 69 1 30 31
M  V30 70 1 31 32
M  V30 71 2 31 33
M  V30 72 1 32 70
M  V30 73 1 32 71
M  V30 74 1 32 72
M  V30 75 1 33 34
M  V30 76 2 34 35
M  V30 77 1 34 73
M  V30 78 1 35 36
M  V30 END BOND
M  V30 END CTAB
M  END
> <s_m_entry_id>
1198

> <s_m_entry_name>
result.2166

> <s_m_Source_Path>
D:\OneDrive - zju.edu.cn\DOC\A-Finished\LCK_VS\Planet\LCK-8617

> <s_m_Source_File>
glide-dock_SP_top1262_2_pv.maegz

> <i_m_Source_File_Index>
1198

> <PLANET_affinity>
8.541

> <i_lp_mmshare_version>
54117

> <i_f3d_flags>
0

> <s_epik_input>
W0NIMl0xW0NIMl1PW0NIMl1bQ0gyXVtDSF0xW0NIMl1OMltDQEhdKFtDSDNdKVtDSDJdTihbQ0BIXShbQ0gyXTIpW0NIM10pQyg9TylOKFtDSDJdMylDKFtDSDNdKShbQ0gzXSljKGMzNClbbkhdbmM0W05IXWM1bmMoW0NIM10pbltjSF1jNUY=

> <s_epik_cmdline>
J2VwaWtfcHl0aG9uJywgJy1waCcsICc3LjAnLCAnLXRuJywgJzgnLCAnLW1hJywgJzUwMCcsICctaW1hZScsICc8aW5maWxlLm1hZT4nLCAnLW9tYWUnLCAnPG91dGZpbGUubWFlPic=

> <r_epik_Ionization_Penalty>
  0.0197

> <r_epik_Ionization_Penalty_Charging>
  0.0174

> <r_epik_Ionization_Penalty_Neutral>
  0.0023

> <r_epik_State_Penalty>
  0.1033

> <r_epik_Charging_Adjusted_Penalty>
0.120664

> <i_epik_Tot_Q>
1

> <i_epik_Tot_abs_Q>
1

> <s_lp_Force_Field>
S-OPLS

> <r_lp_Energy>
68.9304

> <b_lp_Chiralities_Consistent>
1

> <s_lp_Variant>
O=C(N1[C@@H](C)CN(CC2CCOCC2)[C@H](C)C1)N(C3)C(C)(C)C4=C3C(NC5=NC(C)=NC=C5F)=NN4-2

> <s_i_glide_gridfile>
glide-grid_1

> <i_i_glide_lignum>
773

> <i_i_glide_rotatable_bonds>
6

> <r_i_docking_score>
-7.41552027675689

> <r_i_glide_ligand_efficiency>
-0.205986674354358

> <r_i_glide_ligand_efficiency_sa>
-0.680153012147391

> <r_i_glide_ligand_efficiency_ln>
-1.6178661801831

> <r_i_glide_gscore>
-7.51882027675689

> <r_i_glide_lipo>
-2.11141733210597

> <r_i_glide_hbond>
-0.60528092467382

> <r_i_glide_metal>
0

> <r_i_glide_rewards>
-1.70196100040565

> <r_i_glide_evdw>
-41.2396850585938

> <r_i_glide_ecoul>
-9.00445079803467

> <r_i_glide_erotb>
0.340971616935726

> <r_i_glide_esite>
-0.0284807638722804

> <r_i_glide_emodel>
-71.0521674325684

> <r_i_glide_energy>
-50.2441358566284

> <r_i_glide_einternal>
9.39498615264893

> <i_i_glide_confnum>
191

> <i_i_glide_posenum>
287

> <r_i_glide_eff_state_penalty>
0.1033

> <r_lp_tautomer_probability>
0.8426

> <s_m_subgroup_title>
glide-dock_SP_top1262_2_pv

> <s_m_subgroupid>
glide-dock_SP_top1262_2_pv

> <b_m_subgroup_collapsed>
0

$$$$
OC1=CC=C(C2=C(CC)C(C3=CC4=C(NN=C4)C=C3)=CN=C2N)C=C1
                    3D
 Schrodinger Suite 2021-3.
  0  0  0     0  0            999 V3000
M  V30 BEGIN CTAB
M  V30 COUNTS 43 46 0 0 0
M  V30 BEGIN ATOM
M  V30 1 O  19.3247 38.5111 87.4159 0
M  V30 2 C  20.4160 38.1001 86.6969 0
M  V30 3 C  20.8940 38.8797 85.6457 0
M  V30 4 C  22.0071 38.4549 84.9220 0
M  V30 5 C  22.6476 37.2519 85.2425 0
M  V30 6 C  22.1557 36.4794 86.2993 0
M  V30 7 C  21.0428 36.8999 87.0251 0
M  V30 8 C  23.8311 36.8036 84.4434 0
M  V30 9 C  25.1076 37.4119 84.5745 0
M  V30 10 C  25.3522 38.4489 85.6906 0
M  V30 11 C  26.3698 38.0056 86.7555 0
M  V30 12 C  26.1463 37.0398 83.6781 0
M  V30 13 C  25.8655 36.0348 82.7457 0
M  V30 14 N  24.6769 35.4092 82.6386 0
M  V30 15 C  23.6849 35.8013 83.4630 0
M  V30 16 N  22.4699 35.1629 83.2435 0
M  V30 17 C  27.5247 37.6199 83.6658 0
M  V30 18 C  27.7472 39.0031 83.6358 0
M  V30 19 C  28.6273 36.7558 83.6441 0
M  V30 20 C  29.9493 37.1912 83.6364 0
M  V30 21 C  30.1434 38.5687 83.6450 0
M  V30 22 C  29.0649 39.4841 83.6446 0
M  V30 23 N  31.2848 39.3408 83.6494 0
M  V30 24 N  30.9999 40.6517 83.6590 0
M  V30 25 C  29.6969 40.7591 83.6505 0
M  V30 26 H  18.9140 39.3096 87.0726 0
M  V30 27 H  20.4132 39.8127 85.3887 0
M  V30 28 H  22.3749 39.0622 84.1074 0
M  V30 29 H  22.6440 35.5565 86.5655 0
M  V30 30 H  20.6671 36.2972 87.8391 0
M  V30 31 H  25.6479 39.4002 85.2575 0
M  V30 32 H  24.4342 38.6885 86.2223 0
M  V30 33 H  26.4679 38.7623 87.5350 0
M  V30 34 H  26.0649 37.0794 87.2393 0
M  V30 35 H  27.3608 37.8507 86.3334 0
M  V30 36 H  26.6192 35.7081 82.0425 0
M  V30 37 H  21.6872 35.4062 83.8270 0
M  V30 38 H  22.3909 34.4396 82.5343 0
M  V30 39 H  26.9230 39.6968 83.5940 0
M  V30 40 H  28.4594 35.6890 83.6392 0
M  V30 41 H  30.7724 36.4921 83.6269 0
M  V30 42 H  32.2446 39.0286 83.6515 0
M  V30 43 H  29.2373 41.7363 83.6636 0
M  V30 END ATOM
M  V30 BEGIN BOND
M  V30 1 1 1 2
M  V30 2 1 1 26
M  V30 3 2 2 3
M  V30 4 1 2 7
M  V30 5 1 3 4
M  V30 6 1 3 27
M  V30 7 2 4 5
M  V30 8 1 4 28
M  V30 9 1 5 6
M  V30 10 1 5 8
M  V30 11 2 6 7
M  V30 12 1 6 29
M  V30 13 1 7 30
M  V30 14 2 8 9
M  V30 15 1 8 15
M  V30 16 1 9 10
M  V30 17 1 9 12
M  V30 18 1 10 11
M  V30 19 1 10 31
M  V30 20 1 10 32
M  V30 21 1 11 33
M  V30 22 1 11 34
M  V30 23 1 11 35
M  V30 24 2 12 13
M  V30 25 1 12 17
M  V30 26 1 13 14
M  V30 27 1 13 36
M  V30 28 2 14 15
M  V30 29 1 15 16
M  V30 30 1 16 37
M  V30 31 1 16 38
M  V30 32 2 17 18
M  V30 33 1 17 19
M  V30 34 1 18 22
M  V30 35 1 18 39
M  V30 36 2 19 20
M  V30 37 1 19 40
M  V30 38 1 20 21
M  V30 39 1 20 41
M  V30 40 2 21 22
M  V30 41 1 21 23
M  V30 42 1 22 25
M  V30 43 1 23 24
M  V30 44 1 23 42
M  V30 45 2 24 25
M  V30 46 1 25 43
M  V30 END BOND
M  V30 END CTAB
M  END
> <s_m_entry_id>
1201

> <s_m_entry_name>
result.7501

> <s_m_Source_Path>
D:\OneDrive - zju.edu.cn\DOC\A-Finished\LCK_VS\Planet\LCK-8617

> <s_m_Source_File>
glide-dock_SP_top1262_2_pv.maegz

> <i_m_Source_File_Index>
1201

> <PLANET_affinity>
7.142

> <i_lp_mmshare_version>
54117

> <i_f3d_flags>
0

> <s_epik_input>
W09IXWMxW2NIXVtjSF1jKFtjSF1bY0hdMSktYzJjKFtDSDJdW0NIM10pYyhbY0hdbmMyW05IMl0pLWMoW2NIXVtjSF0zKVtjSF1jKGMzNClbY0hdbltuSF00

> <s_epik_cmdline>
J2VwaWtfcHl0aG9uJywgJy1waCcsICc3LjAnLCAnLXRuJywgJzgnLCAnLW1hJywgJzUwMCcsICctaW1hZScsICc8aW5maWxlLm1hZT4nLCAnLW9tYWUnLCAnPG91dGZpbGUubWFlPic=

> <r_epik_Ionization_Penalty>
  0.2900

> <r_epik_Ionization_Penalty_Charging>
  0.0000

> <r_epik_Ionization_Penalty_Neutral>
  0.2900

> <r_epik_State_Penalty>
  0.2875

> <r_epik_Charging_Adjusted_Penalty>
0.287504

> <i_epik_Tot_Q>
0

> <i_epik_Tot_abs_Q>
0

> <s_lp_Force_Field>
S-OPLS

> <r_lp_Energy>
35.3785

> <b_lp_Chiralities_Consistent>
1

> <s_lp_Variant>
OC1=CC=C(C2=C(CC)C(C3=CC4=C(NN=C4)C=C3)=CN=C2N)C=C1-1

> <s_i_glide_gridfile>
glide-grid_1

> <i_i_glide_lignum>
2474

> <i_i_glide_rotatable_bonds>
4

> <r_i_docking_score>
-7.41262852870685

> <r_i_glide_ligand_efficiency>
-0.296505141148274

> <r_i_glide_ligand_efficiency_sa>
-0.866986291258622

> <r_i_glide_ligand_efficiency_ln>
-1.75701509985505

> <r_i_glide_gscore>
-7.70012852870685

> <r_i_glide_lipo>
-3.4411658953743

> <r_i_glide_hbond>
-0.326090555152886

> <r_i_glide_metal>
0

> <r_i_glide_rewards>
-1.95180650093902

> <r_i_glide_evdw>
-35.132884979248

> <r_i_glide_ecoul>
-3.7935163974762

> <r_i_glide_erotb>
0.344606131343196

> <r_i_glide_esite>
0

> <r_i_glide_emodel>
-59.0329450081157

> <r_i_glide_energy>
-38.9264013767242

> <r_i_glide_einternal>
1.57210385799408

> <i_i_glide_confnum>
1

> <i_i_glide_posenum>
26

> <r_i_glide_eff_state_penalty>
0.2875

> <r_lp_tautomer_probability>
0.980392

> <s_m_subgroup_title>
glide-dock_SP_top1262_2_pv

> <s_m_subgroupid>
glide-dock_SP_top1262_2_pv

> <b_m_subgroup_collapsed>
0

$$$$
CC(C1=NC=CS1)(C#CC2=CC3=C(CCN3C4=NC(N)=NC=C4Cl)C=C2)O
                    3D
 Schrodinger Suite 2021-3.
  0  0  0     0  0            999 V3000
M  V30 BEGIN CTAB
M  V30 COUNTS 43 46 0 0 0
M  V30 BEGIN ATOM
M  V30 1 S  20.4680 39.0700 87.1158 0
M  V30 2 C  20.4826 40.6114 86.3218 0
M  V30 3 C  20.8043 40.4145 84.9875 0
M  V30 4 N  21.0054 39.1703 84.6133 0
M  V30 5 C  20.8886 38.3039 85.5999 0
M  V30 6 C  21.1064 36.7953 85.3960 0 CFG=1
M  V30 7 C  20.8437 35.9587 86.6717 0
M  V30 8 O  20.1587 36.3567 84.4435 0
M  V30 9 C  22.4796 36.5449 84.9086 0
M  V30 10 C  23.6240 36.4248 84.4987 0
M  V30 11 C  25.0038 36.3686 84.0455 0
M  V30 12 C  25.9036 37.3550 84.4570 0
M  V30 13 C  25.4372 35.3346 83.2122 0
M  V30 14 C  26.7728 35.2745 82.8120 0
M  V30 15 C  27.6802 36.2443 83.2435 0
M  V30 16 C  27.2417 37.2872 84.0636 0
M  V30 17 C  29.1523 36.3599 82.9507 0
M  V30 18 C  29.5511 37.5801 83.7715 0
M  V30 19 N  28.3318 38.1134 84.3576 0
M  V30 20 C  28.2336 39.3506 85.0029 0
M  V30 21 N  28.8337 39.4594 86.2174 0
M  V30 22 C  28.7266 40.6591 86.8395 0
M  V30 23 N  29.2829 40.7697 88.0998 0
M  V30 24 N  28.1109 41.7630 86.3535 0
M  V30 25 C  27.5547 41.6425 85.1234 0
M  V30 26 C  27.5923 40.4467 84.4059 0
M  V30 27 Cl 26.8846 40.3567 82.8435 0
M  V30 28 H  20.2611 41.5329 86.8430 0
M  V30 29 H  20.8883 41.2001 84.2511 0
M  V30 30 H  21.5140 36.2373 87.4865 0
M  V30 31 H  19.8221 36.0911 87.0318 0
M  V30 32 H  20.9803 34.8891 86.5006 0
M  V30 33 H  20.2594 36.9094 83.6642 0
M  V30 34 H  25.5705 38.1590 85.0977 0
M  V30 35 H  24.7460 34.5727 82.8807 0
M  V30 36 H  27.1008 34.4692 82.1697 0
M  V30 37 H  29.7181 35.4856 83.2763 0
M  V30 38 H  29.3511 36.5296 81.8920 0
M  V30 39 H  30.0306 38.3365 83.1486 0
M  V30 40 H  30.2486 37.3086 84.5660 0
M  V30 41 H  29.3363 41.6892 88.5075 0
M  V30 42 H  29.8846 40.0119 88.4262 0
M  V30 43 H  27.0757 42.5232 84.7188 0
M  V30 END ATOM
M  V30 BEGIN BOND
M  V30 1 1 1 2
M  V30 2 1 1 5
M  V30 3 2 2 3
M  V30 4 1 2 28
M  V30 5 1 3 4
M  V30 6 1 3 29
M  V30 7 2 4 5
M  V30 8 1 5 6
M  V30 9 1 6 7
M  V30 10 1 6 8
M  V30 11 1 6 9
M  V30 12 1 7 30
M  V30 13 1 7 31
M  V30 14 1 7 32
M  V30 15 1 8 33
M  V30 16 3 9 10
M  V30 17 1 10 11
M  V30 18 2 11 12
M  V30 19 1 11 13
M  V30 20 1 12 16
M  V30 21 1 12 34
M  V30 22 2 13 14
M  V30 23 1 13 35
M  V30 24 1 14 15
M  V30 25 1 14 36
M  V30 26 2 15 16
M  V30 27 1 15 17
M  V30 28 1 16 19
M  V30 29 1 17 18
M  V30 30 1 17 37
M  V30 31 1 17 38
M  V30 32 1 18 19
M  V30 33 1 18 39
M  V30 34 1 18 40
M  V30 35 1 19 20
M  V30 36 2 20 21
M  V30 37 1 20 26
M  V30 38 1 21 22
M  V30 39 1 22 23
M  V30 40 2 22 24
M  V30 41 1 23 41
M  V30 42 1 23 42
M  V30 43 1 24 25
M  V30 44 2 25 26
M  V30 45 1 25 43
M  V30 46 1 26 27
M  V30 END BOND
M  V30 END CTAB
M  END
> <s_m_entry_id>
1202

> <s_m_entry_name>
result.816

> <s_m_Source_Path>
D:\OneDrive - zju.edu.cn\DOC\A-Finished\LCK_VS\Planet\LCK-8617

> <s_m_Source_File>
glide-dock_SP_top1262_2_pv.maegz

> <i_m_Source_File_Index>
1202

> <PLANET_affinity>
7.749

> <i_lp_mmshare_version>
54117

> <i_f3d_flags>
0

> <s_epik_input>
bjFbY0hdW2NIXXNjMVtDQEBdKFtDSDNdKShbT0hdKUMjQ2MoW2NIXVtjSF0yKVtjSF1jKGMyMylOKFtDSDJdW0NIMl0zKWM0bmMoW05IMl0pbltjSF1jNENs

> <s_epik_cmdline>
J2VwaWtfcHl0aG9uJywgJy1waCcsICc3LjAnLCAnLXRuJywgJzgnLCAnLW1hJywgJzUwMCcsICctaW1hZScsICc8aW5maWxlLm1hZT4nLCAnLW9tYWUnLCAnPG91dGZpbGUubWFlPic=

> <r_epik_Ionization_Penalty>
  0.0004

> <r_epik_Ionization_Penalty_Charging>
  0.0000

> <r_epik_Ionization_Penalty_Neutral>
  0.0004

> <r_epik_State_Penalty>
  0.0002

> <r_epik_Charging_Adjusted_Penalty>
0.000202862

> <i_epik_Tot_Q>
0

> <i_epik_Tot_abs_Q>
0

> <s_lp_Force_Field>
S-OPLS

> <r_lp_Energy>
25.0612

> <b_lp_Chiralities_Consistent>
1

> <s_lp_Variant>
CC(C1=NC=CS1)(C#CC2=CC3=C(CCN3C4=NC(N)=NC=C4Cl)C=C2)O-1

> <s_i_glide_gridfile>
glide-grid_1

> <i_i_glide_lignum>
1573

> <i_i_glide_rotatable_bonds>
5

> <r_i_docking_score>
-7.41215169393972

> <r_i_glide_ligand_efficiency>
-0.274524136812582

> <r_i_glide_ligand_efficiency_sa>
-0.82357240953296

> <r_i_glide_ligand_efficiency_ln>
-1.72542671547813

> <r_i_glide_gscore>
-7.41235169393972

> <r_i_glide_lipo>
-2.97116078173427

> <r_i_glide_hbond>
-0.608

> <r_i_glide_metal>
0

> <r_i_glide_rewards>
-1.0126846690706

> <r_i_glide_evdw>
-34.7717819213867

> <r_i_glide_ecoul>
-9.41911602020264

> <r_i_glide_erotb>
0.371028045994354

> <r_i_glide_esite>
-0.0400777900294798

> <r_i_glide_emodel>
-61.4815731227653

> <r_i_glide_energy>
-44.1908979415894

> <r_i_glide_einternal>
5.1555233001709

> <i_i_glide_confnum>
2

> <i_i_glide_posenum>
139

> <r_i_glide_eff_state_penalty>
0.0002

> <r_lp_tautomer_probability>
1

> <s_m_subgroup_title>
glide-dock_SP_top1262_2_pv

> <s_m_subgroupid>
glide-dock_SP_top1262_2_pv

> <b_m_subgroup_collapsed>
0

$$$$
O=C(C(NC1=CC=C(O)C(Cl)=C1)=C2C3=CC=CC=C3[N+]([O-])=O)NC2=O
                    3D
 Schrodinger Suite 2021-3.
  0  0  0     0  0            999 V3000
M  V30 BEGIN CTAB
M  V30 COUNTS 35 37 0 0 0
M  V30 BEGIN ATOM
M  V30 1 Cl 27.1877 36.7595 84.1024 0
M  V30 2 C  25.5329 36.3153 83.8660 0
M  V30 3 C  24.5530 36.8718 84.6867 0
M  V30 4 C  25.1579 35.4408 82.8437 0
M  V30 5 O  26.0862 34.8386 82.0466 0
M  V30 6 C  23.8144 35.1574 82.6237 0
M  V30 7 C  22.8373 35.7516 83.4130 0
M  V30 8 C  23.1950 36.6363 84.4326 0
M  V30 9 N  22.1411 37.2385 85.1286 0
M  V30 10 C  22.0886 38.3328 85.9730 0
M  V30 11 C  22.9994 39.4566 86.0398 0
M  V30 12 O  24.0048 39.7012 85.3762 0
M  V30 13 C  21.0739 38.6300 86.7871 0
M  V30 14 C  21.3647 39.8278 87.5170 0
M  V30 15 O  20.7402 40.3585 88.4335 0
M  V30 16 N  22.5170 40.2540 87.0004 0
M  V30 17 C  19.7709 37.9324 86.8430 0
M  V30 18 C  19.5820 36.9650 87.8276 0
M  V30 19 C  18.3347 36.3873 88.0409 0
M  V30 20 C  17.2602 36.7672 87.2430 0
M  V30 21 C  17.4545 37.6474 86.1922 0
M  V30 22 C  18.7116 38.2087 85.9498 0
M  V30 23 N  18.8777 39.0313 84.7370 0 CHG=1
M  V30 24 O  19.6949 39.9400 84.7350 0 CHG=-1
M  V30 25 O  18.1784 38.7563 83.7630 0
M  V30 26 H  24.8715 37.5009 85.5006 0
M  V30 27 H  26.9722 35.1972 82.1544 0
M  V30 28 H  23.5235 34.4836 81.8325 0
M  V30 29 H  21.8008 35.5296 83.2035 0
M  V30 30 H  21.2679 36.7549 84.9806 0
M  V30 31 H  22.9652 41.1109 87.2849 0
M  V30 32 H  20.4176 36.6855 88.4431 0
M  V30 33 H  18.1988 35.6593 88.8254 0
M  V30 34 H  16.2739 36.3578 87.3740 0
M  V30 35 H  16.6146 37.8890 85.5564 0
M  V30 END ATOM
M  V30 BEGIN BOND
M  V30 1 1 1 2
M  V30 2 2 2 3
M  V30 3 1 2 4
M  V30 4 1 3 8
M  V30 5 1 3 26
M  V30 6 1 4 5
M  V30 7 2 4 6
M  V30 8 1 5 27
M  V30 9 1 6 7
M  V30 10 1 6 28
M  V30 11 2 7 8
M  V30 12 1 7 29
M  V30 13 1 8 9
M  V30 14 1 9 10
M  V30 15 1 9 30
M  V30 16 1 10 11
M  V30 17 2 10 13
M  V30 18 2 11 12
M  V30 19 1 11 16
M  V30 20 1 13 14
M  V30 21 1 13 17
M  V30 22 2 14 15
M  V30 23 1 14 16
M  V30 24 1 16 31
M  V30 25 2 17 18
M  V30 26 1 17 22
M  V30 27 1 18 19
M  V30 28 1 18 32
M  V30 29 2 19 20
M  V30 30 1 19 33
M  V30 31 1 20 21
M  V30 32 1 20 34
M  V30 33 2 21 22
M  V30 34 1 21 35
M  V30 35 1 22 23
M  V30 36 1 23 24
M  V30 37 2 23 25
M  V30 END BOND
M  V30 END CTAB
M  END
> <s_m_entry_id>
1203

> <s_m_entry_name>
result.899

> <s_m_Source_Path>
D:\OneDrive - zju.edu.cn\DOC\A-Finished\LCK_VS\Planet\LCK-8617

> <s_m_Source_File>
glide-dock_SP_top1262_2_pv.maegz

> <i_m_Source_File_Index>
1203

> <PLANET_affinity>
7.203

> <i_lp_mmshare_version>
54117

> <i_f3d_flags>
0

> <s_epik_input>
W09IXWMxW2NIXVtjSF1jKFtjSF1jMUNsKVtOSF1DMj1DKEMoPU8pW05IXUMyPU8pYzNbY0hdW2NIXVtjSF1bY0hdYzNbTitdKFtPLV0pPU8=

> <s_epik_cmdline>
J2VwaWtfcHl0aG9uJywgJy1waCcsICc3LjAnLCAnLXRuJywgJzgnLCAnLW1hJywgJzUwMCcsICctaW1hZScsICc8aW5maWxlLm1hZT4nLCAnLW9tYWUnLCAnPG91dGZpbGUubWFlPic=

> <r_epik_Ionization_Penalty>
  0.1940

> <r_epik_Ionization_Penalty_Charging>
  0.0000

> <r_epik_Ionization_Penalty_Neutral>
  0.1940

> <r_epik_State_Penalty>
  0.1826

> <r_epik_Charging_Adjusted_Penalty>
0.182557

> <i_epik_Tot_Q>
0

> <i_epik_Tot_abs_Q>
2

> <s_lp_Force_Field>
S-OPLS

> <r_lp_Energy>
43.7962

> <b_lp_Chiralities_Consistent>
1

> <s_lp_Variant>
O=C(C(NC1=CC=C(O)C(Cl)=C1)=C2C3=CC=CC=C3[N+]([O-])=O)NC2=O-1

> <s_i_glide_gridfile>
glide-grid_1

> <i_i_glide_lignum>
2379

> <i_i_glide_rotatable_bonds>
5

> <r_i_docking_score>
-7.41208250507427

> <r_i_glide_ligand_efficiency>
-0.296483300202971

> <r_i_glide_ligand_efficiency_sa>
-0.866922427947205

> <r_i_glide_ligand_efficiency_ln>
-1.75688567589112

> <r_i_glide_gscore>
-7.59468250507427

> <r_i_glide_lipo>
-3.15381035071756

> <r_i_glide_hbond>
-0.48

> <r_i_glide_metal>
0

> <r_i_glide_rewards>
-1.69903868931456

> <r_i_glide_evdw>
-31.6797637939453

> <r_i_glide_ecoul>
-7.3503098487854

> <r_i_glide_erotb>
0.444455715609832

> <r_i_glide_esite>
-0.0197545136369062

> <r_i_glide_emodel>
-52.2208406696453

> <r_i_glide_energy>
-39.0300736427307

> <r_i_glide_einternal>
7.23345184326172

> <i_i_glide_confnum>
14

> <i_i_glide_posenum>
267

> <r_i_glide_eff_state_penalty>
0.1826

> <r_lp_tautomer_probability>
1

> <s_m_subgroup_title>
glide-dock_SP_top1262_2_pv

> <s_m_subgroupid>
glide-dock_SP_top1262_2_pv

> <b_m_subgroup_collapsed>
0

$$$$
O[C@H]1[C@]([H])(O[C@@H]2[C@@H](O)[C@@H](O)CO[C@]2(O[C@@H]3[C@@](C)(CO)[C@@](...
                    3D
 Schrodinger Suite 2021-3.
  0  0  0     0  0            999 V3000
M  V30 BEGIN CTAB
M  V30 COUNTS 181 190 0 0 0
M  V30 BEGIN ATOM
M  V30 1 O  18.5169 39.1067 87.9520 0
M  V30 2 C  19.6890 39.0969 87.1429 0 CFG=2
M  V30 3 C  20.0963 40.5018 86.6544 0 CFG=1
M  V30 4 O  20.2968 41.3860 87.7512 0
M  V30 5 C  21.3579 40.3558 85.7702 0 CFG=2
M  V30 6 C  21.9036 41.6785 85.1938 0
M  V30 7 O  21.1159 39.4752 84.6691 0
M  V30 8 C  20.8246 38.1470 85.0490 0 CFG=2
M  V30 9 C  19.5953 38.0782 85.9792 0 CFG=2
M  V30 10 O  18.3942 38.2303 85.2378 0
M  V30 11 O  21.9423 37.5241 85.6631 0
M  V30 12 C  23.0158 37.1765 84.7597 0 CFG=2
M  V30 13 C  22.7940 35.7597 84.1117 0 CFG=1
M  V30 14 O  21.6827 35.6040 83.2436 0
M  V30 15 C  24.0257 35.1610 83.4026 0 CFG=1
M  V30 16 O  24.2453 35.5634 82.0685 0
M  V30 17 C  25.2818 35.3741 84.2465 0
M  V30 18 O  25.3856 36.7664 84.4901 0
M  V30 19 C  24.4372 37.2853 85.3931 0 CFG=1
M  V30 20 O  24.7041 38.6518 85.6085 0
M  V30 21 C  25.9520 39.0946 86.2062 0 CFG=1
M  V30 22 C  27.2127 38.3797 85.6444 0
M  V30 23 C  28.5251 38.9472 86.2012 0
M  V30 24 C  26.0609 40.6645 86.0792 0 CFG=1
M  V30 25 C  25.8362 41.0367 84.5844 0
M  V30 26 C  24.9432 41.2907 86.9746 0
M  V30 27 O  25.1196 41.0784 88.3651 0
M  V30 28 C  27.4841 41.1650 86.5941 0 CFG=2
M  V30 29 C  27.6860 42.7086 86.6032 0
M  V30 30 C  28.9004 43.1047 87.4681 0
M  V30 31 C  28.7461 40.4659 85.9598 0 CFG=2
M  V30 32 C  28.9251 40.7289 84.4247 0
M  V30 33 C  30.0166 40.9196 86.8167 0 CFG=2
M  V30 34 C  30.2602 42.4757 87.0114 0 CFG=1
M  V30 35 C  30.6194 43.1222 85.6435 0
M  V30 36 C  31.3010 40.1272 86.4491 0
M  V30 37 C  32.5520 40.6900 87.0755 0
M  V30 38 C  32.6661 41.8138 87.8083 0
M  V30 39 C  31.4377 42.7418 88.1011 0 CFG=2
M  V30 40 C  30.9770 42.3855 89.5476 0
M  V30 41 C  31.8873 44.2594 88.1116 0
M  V30 42 C  33.3174 44.5961 88.5833 0
M  V30 43 C  34.4148 43.7057 87.9357 0 CFG=2
M  V30 44 C  34.0663 42.2305 88.3264 0 CFG=1
M  V30 45 C  34.3701 41.9076 89.8210 0
M  V30 46 C  35.8675 42.1332 90.1771 0
M  V30 47 C  36.0337 41.8874 91.6944 0
M  V30 48 C  36.8288 41.2241 89.3708 0
M  V30 49 C  36.1163 43.6477 89.9187 0
M  V30 50 C  35.8523 44.0716 88.4519 0
M  V30 51 C  34.4451 43.8543 86.3699 0
M  V30 52 O  34.4582 42.8649 85.6302 0
M  V30 53 O  34.4976 45.1550 85.9279 0
M  V30 54 C  34.6024 45.3294 84.5335 0 CFG=2
M  V30 55 O  35.8291 44.8180 84.0747 0
M  V30 56 C  35.9428 44.8512 82.6525 0 CFG=1
M  V30 57 C  36.2025 46.3296 82.3017 0 CFG=1
M  V30 58 O  36.4811 46.5048 80.9155 0
M  V30 59 C  34.9971 47.1778 82.7776 0 CFG=2
M  V30 60 O  35.2830 48.5649 82.6573 0
M  V30 61 C  34.5272 46.8399 84.2269 0 CFG=1
M  V30 62 O  33.2134 47.3192 84.4445 0
M  V30 63 C  37.0756 43.8893 82.2441 0
M  V30 64 O  36.7207 42.5640 82.6269 0
M  V30 65 C  36.3103 41.6840 81.6222 0 CFG=1
M  V30 66 C  37.4305 40.6413 81.4859 0 CFG=2
M  V30 67 O  38.6076 41.2128 80.9409 0
M  V30 68 C  36.9872 39.4200 80.6508 0 CFG=1
M  V30 69 O  37.9848 38.4174 80.7625 0
M  V30 70 C  35.5925 38.8957 81.0605 0 CFG=1
M  V30 71 C  34.5963 40.0860 81.1388 0 CFG=2
M  V30 72 O  35.1177 41.0730 82.0374 0
M  V30 73 C  33.2000 39.7170 81.6868 0
M  V30 74 O  32.4840 38.8279 80.8477 0
M  V30 75 O  35.1131 37.9156 80.1249 0
M  V30 76 C  35.3773 36.5639 80.4025 0 CFG=1
M  V30 77 C  34.3465 35.6919 79.6542 0 CFG=2
M  V30 78 O  34.2895 34.3903 80.2203 0
M  V30 79 C  34.6348 35.6476 78.1377 0 CFG=2
M  V30 80 O  33.7695 34.7542 77.4502 0
M  V30 81 C  36.1070 35.2994 77.8646 0 CFG=1
M  V30 82 O  36.3929 35.3325 76.4711 0
M  V30 83 C  37.0196 36.2426 78.6729 0 CFG=1
M  V30 84 O  36.6979 36.2008 80.0695 0
M  V30 85 C  38.5088 35.8879 78.5255 0
M  V30 86 H  17.8817 39.7766 87.6423 0
M  V30 87 H  20.4773 38.7262 87.8034 0
M  V30 88 H  19.2926 40.9252 86.0521 0
M  V30 89 H  20.1563 42.2941 87.4531 0
M  V30 90 H  22.1440 39.9191 86.3904 0
M  V30 91 H  22.0463 42.4396 85.9732 0
M  V30 92 H  22.8753 41.5126 84.7256 0
M  V30 93 H  21.2831 42.0814 84.4014 0
M  V30 94 H  20.6058 37.6687 84.0953 0
M  V30 95 H  19.5573 37.0689 86.3890 0
M  V30 96 H  17.6697 38.3196 85.8634 0
M  V30 97 H  23.0339 37.9772 84.0406 0
M  V30 98 H  22.5476 35.1564 84.9779 0
M  V30 99 H  21.8180 34.8218 82.6875 0
M  V30 100 H  23.8416 34.0987 83.2436 0
M  V30 101 H  24.6486 36.4336 82.0829 0
M  V30 102 H  26.1673 35.0568 83.6933 0
M  V30 103 H  25.2828 34.8093 85.1772 0
M  V30 104 H  24.5385 36.7380 86.3298 0
M  V30 105 H  25.8647 38.8151 87.2590 0
M  V30 106 H  27.2052 37.3323 85.9486 0
M  V30 107 H  27.2319 38.4184 84.5586 0
M  V30 108 H  29.3481 38.3734 85.7769 0
M  V30 109 H  28.5419 38.7574 87.2744 0
M  V30 110 H  24.8167 40.8380 84.2808 0
M  V30 111 H  26.0158 42.0934 84.3882 0
M  V30 112 H  26.4353 40.4574 83.8913 0
M  V30 113 H  24.8361 42.3601 86.7902 0
M  V30 114 H  23.9858 40.8637 86.7157 0
M  V30 115 H  25.8722 41.5982 88.6583 0
M  V30 116 H  27.5173 40.8519 87.6433 0
M  V30 117 H  27.7089 43.1312 85.6006 0
M  V30 118 H  26.8300 43.1916 87.0677 0
M  V30 119 H  28.6463 42.7852 88.4754 0
M  V30 120 H  28.9869 44.1889 87.5251 0
M  V30 121 H  28.5788 39.9070 83.8012 0
M  V30 122 H  28.3973 41.6174 84.0768 0
M  V30 123 H  29.9615 40.8618 84.1284 0
M  V30 124 H  29.7674 40.5932 87.8235 0
M  V30 125 H  29.8769 42.9339 84.8829 0
M  V30 126 H  30.6189 44.2067 85.6464 0
M  V30 127 H  31.5757 42.7756 85.2595 0
M  V30 128 H  31.2210 39.0907 86.7721 0
M  V30 129 H  31.4666 40.0837 85.3725 0
M  V30 130 H  33.4532 40.1139 86.9019 0
M  V30 131 H  30.1517 43.0073 89.8911 0
M  V30 132 H  30.6772 41.3417 89.6456 0
M  V30 133 H  31.7479 42.5621 90.2904 0
M  V30 134 H  31.8649 44.7031 87.1260 0
M  V30 135 H  31.1682 44.8571 88.6768 0
M  V30 136 H  33.3549 44.5144 89.6668 0
M  V30 137 H  33.5481 45.6530 88.4366 0
M  V30 138 H  34.7653 41.5949 87.7819 0
M  V30 139 H  33.7892 42.5341 90.4909 0
M  V30 140 H  34.0871 40.8761 90.0346 0
M  V30 141 H  37.0566 42.0937 92.0183 0
M  V30 142 H  35.3740 42.5183 92.2921 0
M  V30 143 H  35.8176 40.8502 91.9543 0
M  V30 144 H  37.8519 41.3194 89.7376 0
M  V30 145 H  36.5542 40.1751 89.4777 0
M  V30 146 H  36.8649 41.4366 88.3055 0
M  V30 147 H  35.5006 44.2553 90.5842 0
M  V30 148 H  37.1451 43.9018 90.1826 0
M  V30 149 H  36.6189 43.6020 87.8338 0
M  V30 150 H  36.0130 45.1476 88.3773 0
M  V30 151 H  33.8061 44.7708 84.0365 0
M  V30 152 H  35.0269 44.4990 82.1642 0
M  V30 153 H  37.0928 46.6548 82.8367 0
M  V30 154 H  37.4156 46.3555 80.7536 0
M  V30 155 H  34.1691 46.9694 82.0957 0
M  V30 156 H  36.0232 48.7745 83.2342 0
M  V30 157 H  35.1810 47.3416 84.9444 0
M  V30 158 H  32.6216 46.8993 83.8024 0
M  V30 159 H  37.9899 44.1538 82.7778 0
M  V30 160 H  37.3103 43.9676 81.1809 0
M  V30 161 H  36.0616 42.1912 80.6850 0
M  V30 162 H  37.6728 40.3059 82.4980 0
M  V30 163 H  39.1823 40.4811 80.6913 0
M  V30 164 H  36.9474 39.7114 79.5980 0
M  V30 165 H  37.5707 37.5693 80.5422 0
M  V30 166 H  35.6442 38.4545 82.0603 0
M  V30 167 H  34.4682 40.5304 80.1464 0
M  V30 168 H  33.2950 39.2620 82.6736 0
M  V30 169 H  32.6025 40.6203 81.8243 0
M  V30 170 H  32.1983 39.2809 80.0460 0
M  V30 171 H  35.3124 36.3761 81.4765 0
M  V30 172 H  33.3580 36.1264 79.8168 0
M  V30 173 H  33.7617 33.8357 79.6343 0
M  V30 174 H  34.4391 36.6395 77.7246 0
M  V30 175 H  33.3510 35.2568 76.7364 0
M  V30 176 H  36.2842 34.2738 78.1952 0
M  V30 177 H  35.7939 34.7215 76.0369 0
M  V30 178 H  36.8824 37.2638 78.3128 0
M  V30 179 H  38.8288 35.9530 77.4856 0
M  V30 180 H  38.7123 34.8754 78.8713 0
M  V30 181 H  39.1344 36.5646 79.1053 0
M  V30 END ATOM
M  V30 BEGIN BOND
M  V30 1 1 1 2
M  V30 2 1 1 86
M  V30 3 1 2 3
M  V30 4 1 2 9
M  V30 5 1 2 87
M  V30 6 1 3 4
M  V30 7 1 3 5
M  V30 8 1 3 88
M  V30 9 1 4 89
M  V30 10 1 5 6
M  V30 11 1 5 7
M  V30 12 1 5 90
M  V30 13 1 6 91
M  V30 14 1 6 92
M  V30 15 1 6 93
M  V30 16 1 7 8
M  V30 17 1 8 9
M  V30 18 1 8 11
M  V30 19 1 8 94
M  V30 20 1 9 10
M  V30 21 1 9 95
M  V30 22 1 10 96
M  V30 23 1 11 12
M  V30 24 1 12 13
M  V30 25 1 12 19
M  V30 26 1 12 97
M  V30 27 1 13 14
M  V30 28 1 13 15
M  V30 29 1 13 98
M  V30 30 1 14 99
M  V30 31 1 15 16
M  V30 32 1 15 17
M  V30 33 1 15 100
M  V30 34 1 16 101
M  V30 35 1 17 18
M  V30 36 1 17 102
M  V30 37 1 17 103
M  V30 38 1 18 19
M  V30 39 1 19 20
M  V30 40 1 19 104
M  V30 41 1 20 21
M  V30 42 1 21 22
M  V30 43 1 21 24
M  V30 44 1 21 105
M  V30 45 1 22 23
M  V30 46 1 22 106
M  V30 47 1 22 107
M  V30 48 1 23 31
M  V30 49 1 23 108
M  V30 50 1 23 109
M  V30 51 1 24 25
M  V30 52 1 24 26
M  V30 53 1 24 28
M  V30 54 1 25 110
M  V30 55 1 25 111
M  V30 56 1 25 112
M  V30 57 1 26 27
M  V30 58 1 26 113
M  V30 59 1 26 114
M  V30 60 1 27 115
M  V30 61 1 28 29
M  V30 62 1 28 31
M  V30 63 1 28 116
M  V30 64 1 29 30
M  V30 65 1 29 117
M  V30 66 1 29 118
M  V30 67 1 30 34
M  V30 68 1 30 119
M  V30 69 1 30 120
M  V30 70 1 31 32
M  V30 71 1 31 33
M  V30 72 1 32 121
M  V30 73 1 32 122
M  V30 74 1 32 123
M  V30 75 1 33 34
M  V30 76 1 33 36
M  V30 77 1 33 124
M  V30 78 1 34 35
M  V30 79 1 34 39
M  V30 80 1 35 125
M  V30 81 1 35 126
M  V30 82 1 35 127
M  V30 83 1 36 37
M  V30 84 1 36 128
M  V30 85 1 36 129
M  V30 86 2 37 38
M  V30 87 1 37 130
M  V30 88 1 38 39
M  V30 89 1 38 44
M  V30 90 1 39 40
M  V30 91 1 39 41
M  V30 92 1 40 131
M  V30 93 1 40 132
M  V30 94 1 40 133
M  V30 95 1 41 42
M  V30 96 1 41 134
M  V30 97 1 41 135
M  V30 98 1 42 43
M  V30 99 1 42 136
M  V30 100 1 42 137
M  V30 101 1 43 44
M  V30 102 1 43 51
M  V30 103 1 43 50
M  V30 104 1 44 45
M  V30 105 1 44 138
M  V30 106 1 45 46
M  V30 107 1 45 139
M  V30 108 1 45 140
M  V30 109 1 46 47
M  V30 110 1 46 48
M  V30 111 1 46 49
M  V30 112 1 47 141
M  V30 113 1 47 142
M  V30 114 1 47 143
M  V30 115 1 48 144
M  V30 116 1 48 145
M  V30 117 1 48 146
M  V30 118 1 49 50
M  V30 119 1 49 147
M  V30 120 1 49 148
M  V30 121 1 50 149
M  V30 122 1 50 150
M  V30 123 2 51 52
M  V30 124 1 51 53
M  V30 125 1 53 54
M  V30 126 1 54 55
M  V30 127 1 54 61
M  V30 128 1 54 151
M  V30 129 1 55 56
M  V30 130 1 56 57
M  V30 131 1 56 63
M  V30 132 1 56 152
M  V30 133 1 57 58
M  V30 134 1 57 59
M  V30 135 1 57 153
M  V30 136 1 58 154
M  V30 137 1 59 60
M  V30 138 1 59 61
M  V30 139 1 59 155
M  V30 140 1 60 156
M  V30 141 1 61 62
M  V30 142 1 61 157
M  V30 143 1 62 158
M  V30 144 1 63 64
M  V30 145 1 63 159
M  V30 146 1 63 160
M  V30 147 1 64 65
M  V30 148 1 65 66
M  V30 149 1 65 72
M  V30 150 1 65 161
M  V30 151 1 66 67
M  V30 152 1 66 68
M  V30 153 1 66 162
M  V30 154 1 67 163
M  V30 155 1 68 69
M  V30 156 1 68 70
M  V30 157 1 68 164
M  V30 158 1 69 165
M  V30 159 1 70 71
M  V30 160 1 70 75
M  V30 161 1 70 166
M  V30 162 1 71 72
M  V30 163 1 71 73
M  V30 164 1 71 167
M  V30 165 1 73 74
M  V30 166 1 73 168
M  V30 167 1 73 169
M  V30 168 1 74 170
M  V30 169 1 75 76
M  V30 170 1 76 77
M  V30 171 1 76 84
M  V30 172 1 76 171
M  V30 173 1 77 78
M  V30 174 1 77 79
M  V30 175 1 77 172
M  V30 176 1 78 173
M  V30 177 1 79 80
M  V30 178 1 79 81
M  V30 179 1 79 174
M  V30 180 1 80 175
M  V30 181 1 81 82
M  V30 182 1 81 83
M  V30 183 1 81 176
M  V30 184 1 82 177
M  V30 185 1 83 84
M  V30 186 1 83 85
M  V30 187 1 83 178
M  V30 188 1 85 179
M  V30 189 1 85 180
M  V30 190 1 85 181
M  V30 END BOND
M  V30 END CTAB
M  END
> <s_m_entry_id>
1204

> <s_m_entry_name>
result.6088

> <s_m_Source_Path>
D:\OneDrive - zju.edu.cn\DOC\A-Finished\LCK_VS\Planet\LCK-8617

> <s_m_Source_File>
glide-dock_SP_top1262_2_pv.maegz

> <i_m_Source_File_Index>
1204

> <PLANET_affinity>
7.859

> <i_lp_mmshare_version>
54117

> <i_f3d_flags>
0

> <s_epik_input>
W09IXVtDQEBIXTFbQ0BASF0oW09IXSlbQ0BIXShbQ0gzXSlPW0NASF0oW0NAQEhdMVtPSF0pT1tDQEBIXTJbQ0BASF0oW09IXSlbQ0BASF0oW09IXSlbQ0gyXU9bQ0BIXTJPW0NAQEhdKFtDSDJdW0NIMl0zKVtDQEBdKFtDSDNdKShbQ0gyXVtPSF0pW0NAQEhdKFtDQF0zNFtDSDNdKVtDSDJdW0NIMl1bQ0BdNShbQ0gzXSlbQ0BASF00W0NIMl1bQ0hdPUM2W0NAQF01KFtDSDNdKVtDSDJdW0NIMl1bQ0BAXTcoW0NASF02W0NIMl1DKFtDSDNdKShbQ0gzXSlbQ0gyXVtDSDJdNylDKD1PKU9bQ0BASF04T1tDQEBIXShbQ0BASF0oW09IXSlbQ0BIXShbT0hdKVtDQEhdOFtPSF0pW0NIMl1PW0NASF05W0NASF0oW09IXSlbQ0BASF0oW09IXSlbQ0BASF0oW0NASF0oTzkpW0NIMl1bT0hdKU9bQ0BIXTFbQ0BIXShbT0hdKVtDQEhdKFtPSF0pW0NAQEhdKFtPSF0pW0NAQEhdKE8xKVtDSDNd

> <s_epik_cmdline>
J2VwaWtfcHl0aG9uJywgJy1waCcsICc3LjAnLCAnLXRuJywgJzgnLCAnLW1hJywgJzUwMCcsICctaW1hZScsICc8aW5maWxlLm1hZT4nLCAnLW9tYWUnLCAnPG91dGZpbGUubWFlPic=

> <r_epik_Ionization_Penalty>
  0.0000

> <r_epik_Ionization_Penalty_Charging>
  0.0000

> <r_epik_Ionization_Penalty_Neutral>
  0.0000

> <r_epik_State_Penalty>
  0.0000

> <r_epik_Charging_Adjusted_Penalty>
0

> <i_epik_Tot_Q>
0

> <i_epik_Tot_abs_Q>
0

> <s_epik_Chemistry_Notes>
This compound has an ester and may undergo hydrolysis at high or low pH. This compound contains an acetal/aminal-like group ( X-CH(R)-Y where X, Y are N, S, or O) that may be acid/base labile, releasing an aldehyde.

> <s_lp_Force_Field>
S-OPLS

> <r_lp_Energy>
139.929

> <b_lp_Chiralities_Consistent>
1

> <s_lp_Variant>
O[C@H]1[C@]([H])(O[C@@H]2[C@@H](O)[C@@H](O)CO[C@]2(O[C@@H]3[C@@](C)(CO)[C@@](...-1

> <s_i_glide_gridfile>
glide-grid_1

> <i_i_glide_lignum>
1442

> <i_i_glide_rotatable_bonds>
29

> <r_i_docking_score>
-7.4119327684037

> <r_i_glide_ligand_efficiency>
-0.0871992090400435

> <r_i_glide_ligand_efficiency_sa>
-0.383400069128216

> <r_i_glide_ligand_efficiency_ln>
-1.36182393820751

> <r_i_glide_gscore>
-7.4119327684037

> <r_i_glide_lipo>
-1.57320704296719

> <r_i_glide_hbond>
0

> <r_i_glide_metal>
0

> <r_i_glide_rewards>
-0.480524252151137

> <r_i_glide_evdw>
-45.961181640625

> <r_i_glide_ecoul>
-21.5777912139893

> <r_i_glide_erotb>
0.212528411521323

> <r_i_glide_esite>
-0.0360021206770536

> <r_i_glide_emodel>
-85.8656505778444

> <r_i_glide_energy>
-67.5389728546143

> <r_i_glide_einternal>
26.5291042327881

> <i_i_glide_confnum>
6

> <i_i_glide_posenum>
233

> <r_i_glide_eff_state_penalty>
0

> <r_lp_tautomer_probability>
1

> <s_m_subgroup_title>
glide-dock_SP_top1262_2_pv

> <s_m_subgroupid>
glide-dock_SP_top1262_2_pv

> <b_m_subgroup_collapsed>
0

$$$$
O=S(C1=CC=CC=C1)(NC2=CC=C(C3=CC=C(CCCC(N4CC)=NN(CC5=CC=C(C(C)(C)C)C=C5)C4=O)C...
                    3D
 Schrodinger Suite 2021-3.
  0  0  0     0  0            999 V3000
M  V30 BEGIN CTAB
M  V30 COUNTS 83 87 0 0 0
M  V30 BEGIN ATOM
M  V30 1 C  33.1050 38.1384 80.8714 0
M  V30 2 C  33.2831 39.3365 80.1856 0
M  V30 3 C  32.8510 40.5290 80.7585 0
M  V30 4 C  32.2493 40.5389 82.0155 0
M  V30 5 C  32.0816 39.3437 82.7102 0
M  V30 6 C  32.5145 38.1444 82.1370 0
M  V30 7 S  32.3298 36.6012 83.0240 0
M  V30 8 O  32.1227 36.9102 84.4427 0
M  V30 9 O  33.4253 35.7262 82.5934 0
M  V30 10 N  30.8501 35.8587 82.3897 0
M  V30 11 C  29.5462 36.0864 82.8564 0
M  V30 12 C  29.1799 37.1251 83.7181 0
M  V30 13 C  27.8501 37.2473 84.1280 0
M  V30 14 C  26.8780 36.3566 83.6434 0
M  V30 15 N  27.2412 35.3405 82.8147 0
M  V30 16 C  28.5402 35.2167 82.4435 0
M  V30 17 C  25.4213 36.4182 84.0183 0
M  V30 18 C  24.4668 35.5843 83.4015 0
M  V30 19 C  23.1217 35.6320 83.7616 0
M  V30 20 C  22.7028 36.5123 84.7612 0
M  V30 21 C  23.6285 37.3573 85.3717 0
M  V30 22 C  24.9690 37.3096 85.0042 0
M  V30 23 C  21.2428 36.5619 85.1929 0
M  V30 24 C  20.2994 37.1075 84.0848 0
M  V30 25 C  19.2122 38.1316 84.4974 0
M  V30 26 C  19.7575 39.2583 85.3718 0
M  V30 27 N  19.4137 39.3844 86.6718 0
M  V30 28 C  18.4096 38.6469 87.4571 0
M  V30 29 C  18.8051 37.2011 87.8141 0
M  V30 30 C  20.2876 40.2289 87.2458 0
M  V30 31 O  20.4832 40.4585 88.4435 0
M  V30 32 N  20.8062 40.8325 86.1640 0
M  V30 33 N  20.5904 40.1440 85.0389 0
M  V30 34 C  21.6808 42.0158 86.2220 0
M  V30 35 C  23.1453 41.7676 85.8825 0
M  V30 36 C  23.9361 40.9824 86.7191 0
M  V30 37 C  25.2945 40.8307 86.4536 0
M  V30 38 C  25.8852 41.4618 85.3456 0
M  V30 39 C  27.3986 41.3345 85.0322 0
M  V30 40 C  28.1934 40.6050 86.1504 0
M  V30 41 C  28.0434 42.7366 84.8745 0
M  V30 42 C  27.5741 40.5508 83.7100 0
M  V30 43 C  25.0693 42.2319 84.5052 0
M  V30 44 C  23.7140 42.3904 84.7723 0
M  V30 45 H  33.4301 37.2116 80.4210 0
M  V30 46 H  33.7361 39.3393 79.2052 0
M  V30 47 H  32.9774 41.4568 80.2198 0
M  V30 48 H  31.9209 41.4710 82.4518 0
M  V30 49 H  31.6297 39.3556 83.6916 0
M  V30 50 H  30.9789 35.1760 81.6563 0
M  V30 51 H  29.9034 37.8326 84.0900 0
M  V30 52 H  27.6025 38.0242 84.8254 0
M  V30 53 H  28.7598 34.3948 81.7750 0
M  V30 54 H  24.7570 34.8848 82.6321 0
M  V30 55 H  22.4132 34.9751 83.2756 0
M  V30 56 H  23.3158 38.0517 86.1367 0
M  V30 57 H  25.6403 37.9797 85.5135 0
M  V30 58 H  21.1757 37.1464 86.1099 0
M  V30 59 H  20.9415 35.5627 85.5098 0
M  V30 60 H  19.7958 36.2507 83.6437 0
M  V30 61 H  20.8889 37.5555 83.2816 0
M  V30 62 H  18.3794 37.6216 84.9800 0
M  V30 63 H  18.7813 38.5638 83.5952 0
M  V30 64 H  18.1722 39.1912 88.3726 0
M  V30 65 H  17.4746 38.6343 86.8934 0
M  V30 66 H  18.0421 36.7445 88.4447 0
M  V30 67 H  18.8950 36.5703 86.9316 0
M  V30 68 H  19.7481 37.1568 88.3579 0
M  V30 69 H  21.6546 42.4706 87.2156 0
M  V30 70 H  21.2830 42.7977 85.5803 0
M  V30 71 H  23.5048 40.5097 87.5904 0
M  V30 72 H  25.8712 40.2250 87.1348 0
M  V30 73 H  29.2552 40.5308 85.9053 0
M  V30 74 H  27.8424 39.5888 86.3203 0
M  V30 75 H  28.1250 41.1377 87.1000 0
M  V30 76 H  27.6215 43.3038 84.0449 0
M  V30 77 H  27.9126 43.3350 85.7766 0
M  V30 78 H  29.1161 42.6680 84.6833 0
M  V30 79 H  27.3253 41.1502 82.8434 0
M  V30 80 H  28.5987 40.2074 83.5662 0
M  V30 81 H  26.9094 39.6924 83.6616 0
M  V30 82 H  25.4827 42.7355 83.6449 0
M  V30 83 H  23.1176 43.0172 84.1234 0
M  V30 END ATOM
M  V30 BEGIN BOND
M  V30 1 2 1 2
M  V30 2 1 1 6
M  V30 3 1 1 45
M  V30 4 1 2 3
M  V30 5 1 2 46
M  V30 6 2 3 4
M  V30 7 1 3 47
M  V30 8 1 4 5
M  V30 9 1 4 48
M  V30 10 2 5 6
M  V30 11 1 5 49
M  V30 12 1 6 7
M  V30 13 2 7 8
M  V30 14 2 7 9
M  V30 15 1 7 10
M  V30 16 1 10 11
M  V30 17 1 10 50
M  V30 18 2 11 12
M  V30 19 1 11 16
M  V30 20 1 12 13
M  V30 21 1 12 51
M  V30 22 2 13 14
M  V30 23 1 13 52
M  V30 24 1 14 15
M  V30 25 1 14 17
M  V30 26 2 15 16
M  V30 27 1 16 53
M  V30 28 2 17 18
M  V30 29 1 17 22
M  V30 30 1 18 19
M  V30 31 1 18 54
M  V30 32 2 19 20
M  V30 33 1 19 55
M  V30 34 1 20 21
M  V30 35 1 20 23
M  V30 36 2 21 22
M  V30 37 1 21 56
M  V30 38 1 22 57
M  V30 39 1 23 24
M  V30 40 1 23 58
M  V30 41 1 23 59
M  V30 42 1 24 25
M  V30 43 1 24 60
M  V30 44 1 24 61
M  V30 45 1 25 26
M  V30 46 1 25 62
M  V30 47 1 25 63
M  V30 48 1 26 27
M  V30 49 2 26 33
M  V30 50 1 27 28
M  V30 51 1 27 30
M  V30 52 1 28 29
M  V30 53 1 28 64
M  V30 54 1 28 65
M  V30 55 1 29 66
M  V30 56 1 29 67
M  V30 57 1 29 68
M  V30 58 2 30 31
M  V30 59 1 30 32
M  V30 60 1 32 33
M  V30 61 1 32 34
M  V30 62 1 34 35
M  V30 63 1 34 69
M  V30 64 1 34 70
M  V30 65 2 35 36
M  V30 66 1 35 44
M  V30 67 1 36 37
M  V30 68 1 36 71
M  V30 69 2 37 38
M  V30 70 1 37 72
M  V30 71 1 38 39
M  V30 72 1 38 43
M  V30 73 1 39 40
M  V30 74 1 39 41
M  V30 75 1 39 42
M  V30 76 1 40 73
M  V30 77 1 40 74
M  V30 78 1 40 75
M  V30 79 1 41 76
M  V30 80 1 41 77
M  V30 81 1 41 78
M  V30 82 1 42 79
M  V30 83 1 42 80
M  V30 84 1 42 81
M  V30 85 2 43 44
M  V30 86 1 43 82
M  V30 87 1 44 83
M  V30 END BOND
M  V30 END CTAB
M  END
> <s_m_entry_id>
1210

> <s_m_entry_name>
result.8021

> <s_m_Source_Path>
D:\OneDrive - zju.edu.cn\DOC\A-Finished\LCK_VS\Planet\LCK-8617

> <s_m_Source_File>
glide-dock_SP_top1262_2_pv.maegz

> <i_m_Source_File_Index>
1210

> <PLANET_affinity>
7.08

> <i_lp_mmshare_version>
54117

> <i_f3d_flags>
0

> <s_epik_input>
W2NIXTFbY0hdW2NIXVtjSF1bY0hdYzFTKD1PKSg9TylbTkhdYzJbY0hdW2NIXWMobltjSF0yKS1jM1tjSF1bY0hdYyhbY0hdW2NIXTMpW0NIMl1bQ0gyXVtDSDJdYzRuKFtDSDJdW0NIM10pYyg9TyluKG40KVtDSDJdYzVbY0hdW2NIXWMoQyhbQ0gzXSkoW0NIM10pW0NIM10pW2NIXVtjSF01

> <s_epik_cmdline>
J2VwaWtfcHl0aG9uJywgJy1waCcsICc3LjAnLCAnLXRuJywgJzgnLCAnLW1hJywgJzUwMCcsICctaW1hZScsICc8aW5maWxlLm1hZT4nLCAnLW9tYWUnLCAnPG91dGZpbGUubWFlPic=

> <r_epik_Ionization_Penalty>
  0.0606

> <r_epik_Ionization_Penalty_Charging>
  0.0000

> <r_epik_Ionization_Penalty_Neutral>
  0.0606

> <r_epik_State_Penalty>
  0.0705

> <r_epik_Charging_Adjusted_Penalty>
0.0705013

> <i_epik_Tot_Q>
0

> <i_epik_Tot_abs_Q>
0

> <s_lp_Force_Field>
S-OPLS

> <r_lp_Energy>
50.8146

> <b_lp_Chiralities_Consistent>
1

> <s_lp_Variant>
O=S(C1=CC=CC=C1)(NC2=CC=C(C3=CC=C(CCCC(N4CC)=NN(CC5=CC=C(C(C)(C)C)C=C5)C4=O)C...-1

> <s_i_glide_gridfile>
glide-grid_1

> <i_i_glide_lignum>
2565

> <i_i_glide_rotatable_bonds>
12

> <r_i_docking_score>
-7.40957501345048

> <r_i_glide_ligand_efficiency>
-0.168399432123875

> <r_i_glide_ligand_efficiency_sa>
-0.594508654118464

> <r_i_glide_ligand_efficiency_ln>
-1.54876281678283

> <r_i_glide_gscore>
-7.48007501345048

> <r_i_glide_lipo>
-3.45216662979592

> <r_i_glide_hbond>
-0.222107690573606

> <r_i_glide_metal>
0

> <r_i_glide_rewards>
-0.39779783024833

> <r_i_glide_evdw>
-55.4349060058594

> <r_i_glide_ecoul>
-6.91439390182495

> <r_i_glide_erotb>
0.441778054194008

> <r_i_glide_esite>
-0.0408765314599221

> <r_i_glide_emodel>
-86.8648386600838

> <r_i_glide_energy>
-62.3492999076843

> <r_i_glide_einternal>
11.9378690719604

> <i_i_glide_confnum>
340

> <i_i_glide_posenum>
43

> <r_i_glide_eff_state_penalty>
0.0705

> <r_lp_tautomer_probability>
1

> <s_m_subgroup_title>
glide-dock_SP_top1262_2_pv

> <s_m_subgroupid>
glide-dock_SP_top1262_2_pv

> <b_m_subgroup_collapsed>
0

$$$$
O=S([C@H](CC1)CC[C@@H]1NC2=NC=C(C(F)(F)F)C=C2)(C3=CC=C(C4=CC=NC(C(N)=O)=C4)C=...
                    3D
 Schrodinger Suite 2021-3.
  0  0  0     0  0            999 V3000
M  V30 BEGIN CTAB
M  V30 COUNTS 58 61 0 0 0
M  V30 BEGIN ATOM
M  V30 1 N  16.6827 39.1564 85.2437 0
M  V30 2 C  17.6830 38.5557 84.6014 0
M  V30 3 O  17.7458 38.6094 83.3751 0
M  V30 4 C  18.7193 37.8245 85.4203 0
M  V30 5 C  19.9488 37.4881 84.8418 0
M  V30 6 N  18.4228 37.4956 86.7107 0
M  V30 7 C  19.3498 36.8164 87.4313 0
M  V30 8 C  20.6009 36.4684 86.9197 0
M  V30 9 C  20.9153 36.8193 85.6002 0
M  V30 10 C  22.2486 36.5446 85.0148 0
M  V30 11 C  23.4055 36.9376 85.6911 0
M  V30 12 C  24.6552 36.7976 85.0962 0
M  V30 13 C  22.3631 35.9515 83.7547 0
M  V30 14 C  23.6107 35.7904 83.1637 0
M  V30 15 C  24.7524 36.2611 83.8107 0
M  V30 16 S  26.2991 36.1787 82.9116 0
M  V30 17 O  26.6558 34.7568 82.8907 0
M  V30 18 O  26.0768 36.8920 81.6496 0
M  V30 19 C  27.6055 37.1533 83.9036 0 CFG=2
M  V30 20 C  27.2972 38.6719 83.8730 0
M  V30 21 C  28.4136 39.4899 84.5490 0
M  V30 22 C  29.7702 39.1625 83.9013 0 CFG=2
M  V30 23 C  30.1111 37.6626 84.0225 0
M  V30 24 C  29.0148 36.7979 83.3711 0
M  V30 25 N  30.8212 39.9584 84.5294 0
M  V30 26 C  31.9716 40.3509 83.8239 0
M  V30 27 N  32.0519 40.1468 82.4788 0
M  V30 28 C  33.1745 40.5428 81.8290 0
M  V30 29 C  34.2545 41.1520 82.4770 0
M  V30 30 C  35.5065 41.5847 81.7231 0
M  V30 31 F  35.4702 41.2159 80.4436 0
M  V30 32 F  35.6274 42.9104 81.7752 0
M  V30 33 F  36.5835 41.0354 82.2854 0
M  V30 34 C  34.1567 41.3561 83.8585 0
M  V30 35 C  33.0080 40.9522 84.5404 0
M  V30 36 H  15.9375 39.5562 84.7021 0
M  V30 37 H  16.7033 39.2981 86.2490 0
M  V30 38 H  20.1692 37.7749 83.8224 0
M  V30 39 H  19.0754 36.5568 88.4431 0
M  V30 40 H  21.3126 35.9408 87.5385 0
M  V30 41 H  23.3315 37.4000 86.6644 0
M  V30 42 H  25.5172 37.1466 85.6407 0
M  V30 43 H  21.4826 35.6257 83.2202 0
M  V30 44 H  23.6798 35.3552 82.1763 0
M  V30 45 H  27.5005 36.7564 84.9092 0
M  V30 46 H  27.1990 39.0027 82.8383 0
M  V30 47 H  26.3429 38.8938 84.3494 0
M  V30 48 H  28.1998 40.5565 84.4566 0
M  V30 49 H  28.4403 39.2738 85.6190 0
M  V30 50 H  29.7181 39.4177 82.8436 0
M  V30 51 H  30.2200 37.3851 85.0731 0
M  V30 52 H  31.0720 37.4514 83.5503 0
M  V30 53 H  29.2283 35.7422 83.5439 0
M  V30 54 H  29.0464 36.9344 82.2898 0
M  V30 55 H  30.8724 39.9636 85.5367 0
M  V30 56 H  33.1841 40.3597 80.7637 0
M  V30 57 H  34.9645 41.8258 84.4016 0
M  V30 58 H  32.9258 41.1119 85.6052 0
M  V30 END ATOM
M  V30 BEGIN BOND
M  V30 1 1 1 2
M  V30 2 1 1 36
M  V30 3 1 1 37
M  V30 4 2 2 3
M  V30 5 1 2 4
M  V30 6 2 4 5
M  V30 7 1 4 6
M  V30 8 1 5 9
M  V30 9 1 5 38
M  V30 10 2 6 7
M  V30 11 1 7 8
M  V30 12 1 7 39
M  V30 13 2 8 9
M  V30 14 1 8 40
M  V30 15 1 9 10
M  V30 16 2 10 11
M  V30 17 1 10 13
M  V30 18 1 11 12
M  V30 19 1 11 41
M  V30 20 2 12 15
M  V30 21 1 12 42
M  V30 22 2 13 14
M  V30 23 1 13 43
M  V30 24 1 14 15
M  V30 25 1 14 44
M  V30 26 1 15 16
M  V30 27 2 16 17
M  V30 28 2 16 18
M  V30 29 1 16 19
M  V30 30 1 19 20
M  V30 31 1 19 24
M  V30 32 1 19 45
M  V30 33 1 20 21
M  V30 34 1 20 46
M  V30 35 1 20 47
M  V30 36 1 21 22
M  V30 37 1 21 48
M  V30 38 1 21 49
M  V30 39 1 22 23
M  V30 40 1 22 25
M  V30 41 1 22 50
M  V30 42 1 23 24
M  V30 43 1 23 51
M  V30 44 1 23 52
M  V30 45 1 24 53
M  V30 46 1 24 54
M  V30 47 1 25 26
M  V30 48 1 25 55
M  V30 49 2 26 27
M  V30 50 1 26 35
M  V30 51 1 27 28
M  V30 52 2 28 29
M  V30 53 1 28 56
M  V30 54 1 29 30
M  V30 55 1 29 34
M  V30 56 1 30 31
M  V30 57 1 30 32
M  V30 58 1 30 33
M  V30 59 2 34 35
M  V30 60 1 34 57
M  V30 61 1 35 58
M  V30 END BOND
M  V30 END CTAB
M  END
> <s_m_entry_id>
1212

> <s_m_entry_name>
result.8167

> <s_m_Source_Path>
D:\OneDrive - zju.edu.cn\DOC\A-Finished\LCK_VS\Planet\LCK-8617

> <s_m_Source_File>
glide-dock_SP_top1262_2_pv.maegz

> <i_m_Source_File_Index>
1212

> <PLANET_affinity>
7.109

> <i_lp_mmshare_version>
54117

> <i_f3d_flags>
0

> <s_epik_input>
W05IMl1DKD1PKWMxW2NIXWMoW2NIXVtjSF1uMSktYzJbY0hdW2NIXWMoW2NIXVtjSF0yKVMoPU8pKD1PKVtDQEBIXTNbQ0gyXVtDSDJdW0NASF0oW0NIMl1bQ0gyXTMpW05IXWM0bltjSF1jKEMoRikoRilGKVtjSF1bY0hdNA==

> <s_epik_cmdline>
J2VwaWtfcHl0aG9uJywgJy1waCcsICc3LjAnLCAnLXRuJywgJzgnLCAnLW1hJywgJzUwMCcsICctaW1hZScsICc8aW5maWxlLm1hZT4nLCAnLW9tYWUnLCAnPG91dGZpbGUubWFlPic=

> <r_epik_Ionization_Penalty>
  0.0009

> <r_epik_Ionization_Penalty_Charging>
  0.0000

> <r_epik_Ionization_Penalty_Neutral>
  0.0009

> <r_epik_State_Penalty>
  0.0006

> <r_epik_Charging_Adjusted_Penalty>
0.000580722

> <i_epik_Tot_Q>
0

> <i_epik_Tot_abs_Q>
0

> <s_lp_Force_Field>
S-OPLS

> <r_lp_Energy>
44.56

> <b_lp_Chiralities_Consistent>
1

> <s_lp_Variant>
O=S([C@H](CC1)CC[C@@H]1NC2=NC=C(C(F)(F)F)C=C2)(C3=CC=C(C4=CC=NC(C(N)=O)=C4)C=...-1

> <s_i_glide_gridfile>
glide-grid_1

> <i_i_glide_lignum>
2516

> <i_i_glide_rotatable_bonds>
7

> <r_i_docking_score>
-7.40774754443894

> <r_i_glide_ligand_efficiency>
-0.211649929841113

> <r_i_glide_ligand_efficiency_sa>
-0.692320954236561

> <r_i_glide_ligand_efficiency_ln>
-1.62616499210313

> <r_i_glide_gscore>
-7.40834754443894

> <r_i_glide_lipo>
-3.43582690307919

> <r_i_glide_hbond>
-0.391351151930412

> <r_i_glide_metal>
0

> <r_i_glide_rewards>
-1.13319984674734

> <r_i_glide_evdw>
-51.0834465026855

> <r_i_glide_ecoul>
-1.92162418365479

> <r_i_glide_erotb>
0.401641091443385

> <r_i_glide_esite>
-0.00719478144288519

> <r_i_glide_emodel>
-71.644197413422

> <r_i_glide_energy>
-53.0050706863403

> <r_i_glide_einternal>
7.8399019241333

> <i_i_glide_confnum>
106

> <i_i_glide_posenum>
68

> <r_i_glide_eff_state_penalty>
0.0006

> <r_lp_tautomer_probability>
1

> <s_m_subgroup_title>
glide-dock_SP_top1262_2_pv

> <s_m_subgroupid>
glide-dock_SP_top1262_2_pv

> <b_m_subgroup_collapsed>
0

$$$$
CCN(CC)CCCNC1=CC(N=C(/C(CC2)=C/C3=CC=C(C(C)C)C=C3)N2C4=O)=C4C=C1F
                    3D
 Schrodinger Suite 2021-3.
  0  0  0     0  0            999 V3000
M  V30 BEGIN CTAB
M  V30 COUNTS 70 73 0 0 0
M  V30 BEGIN ATOM
M  V30 1 C  18.2466 47.1443 88.9972 0
M  V30 2 C  19.2832 47.0074 90.1351 0
M  V30 3 N  19.6273 45.5396 90.5240 0 CHG=1
M  V30 4 C  18.7239 44.9481 91.6429 0
M  V30 5 C  17.3381 44.4853 91.1507 0
M  V30 6 C  19.8638 44.6279 89.2935 0
M  V30 7 C  20.5457 43.2926 89.6441 0
M  V30 8 C  20.6195 42.3547 88.4250 0
M  V30 9 N  21.2913 41.0912 88.7185 0
M  V30 10 C  21.2864 40.1277 87.6960 0
M  V30 11 C  22.5156 39.6840 87.1993 0
M  V30 12 C  20.0986 39.5253 87.2425 0
M  V30 13 F  18.8934 39.9024 87.7210 0
M  V30 14 C  20.1404 38.5025 86.2969 0
M  V30 15 C  21.3753 38.0802 85.8024 0
M  V30 16 C  22.5589 38.6727 86.2419 0
M  V30 17 C  21.4631 36.9666 84.7874 0
M  V30 18 O  20.4841 36.3566 84.3537 0
M  V30 19 N  22.7508 36.7034 84.3986 0
M  V30 20 C  23.8824 37.3524 84.8434 0
M  V30 21 N  23.8046 38.2752 85.7394 0
M  V30 22 C  25.0430 36.8546 84.1400 0
M  V30 23 C  24.5623 35.7448 83.2224 0
M  V30 24 C  23.0506 35.7131 83.3760 0
M  V30 25 C  26.2787 37.3771 84.3380 0
M  V30 26 C  27.5920 37.0145 83.7444 0
M  V30 27 C  28.7065 37.7521 84.1632 0
M  V30 28 C  29.9857 37.4299 83.7199 0
M  V30 29 C  30.1765 36.3553 82.8491 0
M  V30 30 C  31.5807 35.9734 82.3735 0
M  V30 31 C  32.4442 35.4162 83.5220 0
M  V30 32 C  32.2875 37.1329 81.6436 0
M  V30 33 C  29.0703 35.6207 82.4195 0
M  V30 34 C  27.7872 35.9568 82.8436 0
M  V30 35 H  18.0150 48.1954 88.8207 0
M  V30 36 H  17.3050 46.6437 89.2088 0
M  V30 37 H  18.6170 46.7574 88.0458 0
M  V30 38 H  20.2404 47.4322 89.8260 0
M  V30 39 H  18.9731 47.5163 91.0505 0
M  V30 40 H  19.2983 44.1259 92.0681 0
M  V30 41 H  18.6496 45.7144 92.4165 0
M  V30 42 H  16.7931 44.0008 91.9614 0
M  V30 43 H  17.3936 43.7641 90.3348 0
M  V30 44 H  16.7203 45.3184 90.8233 0
M  V30 45 H  18.8832 44.4877 88.8444 0
M  V30 46 H  20.4917 45.2154 88.6217 0
M  V30 47 H  21.5499 43.4809 90.0255 0
M  V30 48 H  20.0099 42.7812 90.4398 0
M  V30 49 H  19.6118 42.1831 88.0412 0
M  V30 50 H  21.1137 42.8456 87.5838 0
M  V30 51 H  22.2104 41.2380 89.1104 0
M  V30 52 H  23.4416 40.1204 87.5413 0
M  V30 53 H  19.2149 38.0481 85.9660 0
M  V30 54 H  24.8262 35.9319 82.1801 0
M  V30 55 H  24.9894 34.7833 83.5105 0
M  V30 56 H  22.6743 34.7276 83.6516 0
M  V30 57 H  22.5370 35.9588 82.4445 0
M  V30 58 H  26.3451 38.1903 85.0506 0
M  V30 59 H  28.5950 38.5719 84.8587 0
M  V30 60 H  30.8302 38.0064 84.0690 0
M  V30 61 H  31.4749 35.1687 81.6436 0
M  V30 62 H  31.9770 34.5463 83.9841 0
M  V30 63 H  32.6090 36.1594 84.3034 0
M  V30 64 H  33.4222 35.0977 83.1599 0
M  V30 65 H  31.6791 37.5150 80.8219 0
M  V30 66 H  33.2356 36.8049 81.2146 0
M  V30 67 H  32.5013 37.9683 82.3132 0
M  V30 68 H  29.1999 34.7874 81.7425 0
M  V30 69 H  26.9732 35.3515 82.4841 0
M  V30 70 H  20.5396 45.6174 90.9541 0
M  V30 END ATOM
M  V30 BEGIN BOND
M  V30 1 1 1 2
M  V30 2 1 1 35
M  V30 3 1 1 36
M  V30 4 1 1 37
M  V30 5 1 2 3
M  V30 6 1 2 38
M  V30 7 1 2 39
M  V30 8 1 3 4
M  V30 9 1 3 6
M  V30 10 1 3 70
M  V30 11 1 4 5
M  V30 12 1 4 40
M  V30 13 1 4 41
M  V30 14 1 5 42
M  V30 15 1 5 43
M  V30 16 1 5 44
M  V30 17 1 6 7
M  V30 18 1 6 45
M  V30 19 1 6 46
M  V30 20 1 7 8
M  V30 21 1 7 47
M  V30 22 1 7 48
M  V30 23 1 8 9
M  V30 24 1 8 49
M  V30 25 1 8 50
M  V30 26 1 9 10
M  V30 27 1 9 51
M  V30 28 1 10 11
M  V30 29 2 10 12
M  V30 30 2 11 16
M  V30 31 1 11 52
M  V30 32 1 12 13
M  V30 33 1 12 14
M  V30 34 2 14 15
M  V30 35 1 14 53
M  V30 36 1 15 16
M  V30 37 1 15 17
M  V30 38 1 16 21
M  V30 39 2 17 18
M  V30 40 1 17 19
M  V30 41 1 19 20
M  V30 42 1 19 24
M  V30 43 2 20 21
M  V30 44 1 20 22
M  V30 45 1 22 23
M  V30 46 2 22 25
M  V30 47 1 23 24
M  V30 48 1 23 54
M  V30 49 1 23 55
M  V30 50 1 24 56
M  V30 51 1 24 57
M  V30 52 1 25 26
M  V30 53 1 25 58
M  V30 54 2 26 27
M  V30 55 1 26 34
M  V30 56 1 27 28
M  V30 57 1 27 59
M  V30 58 2 28 29
M  V30 59 1 28 60
M  V30 60 1 29 30
M  V30 61 1 29 33
M  V30 62 1 30 31
M  V30 63 1 30 32
M  V30 64 1 30 61
M  V30 65 1 31 62
M  V30 66 1 31 63
M  V30 67 1 31 64
M  V30 68 1 32 65
M  V30 69 1 32 66
M  V30 70 1 32 67
M  V30 71 2 33 34
M  V30 72 1 33 68
M  V30 73 1 34 69
M  V30 END BOND
M  V30 END CTAB
M  END
> <s_m_entry_id>
1225

> <s_m_entry_name>
result.2152

> <s_m_Source_Path>
D:\OneDrive - zju.edu.cn\DOC\A-Finished\LCK_VS\Planet\LCK-8617

> <s_m_Source_File>
glide-dock_SP_top1262_2_pv.maegz

> <i_m_Source_File_Index>
1225

> <PLANET_affinity>
7.55

> <i_lp_mmshare_version>
54117

> <i_f3d_flags>
0

> <s_epik_input>
W0NIM11bQ0gyXU4oW0NIMl1bQ0gzXSlbQ0gyXVtDSDJdW0NIMl1bTkhdYyhjKEYpW2NIXTEpW2NIXWMoYzEyKW5jM24oYzI9TylbQ0gyXVtDSDJdQ1wzPVtDSF0vYzRbY0hdW2NIXWMoW0NIXShbQ0gzXSlbQ0gzXSlbY0hdW2NIXTQ=

> <s_epik_cmdline>
J2VwaWtfcHl0aG9uJywgJy1waCcsICc3LjAnLCAnLXRuJywgJzgnLCAnLW1hJywgJzUwMCcsICctaW1hZScsICc8aW5maWxlLm1hZT4nLCAnLW9tYWUnLCAnPG91dGZpbGUubWFlPic=

> <r_epik_Ionization_Penalty>
  0.0019

> <r_epik_Ionization_Penalty_Charging>
  0.0018

> <r_epik_Ionization_Penalty_Neutral>
  0.0001

> <r_epik_State_Penalty>
  0.0012

> <r_epik_Charging_Adjusted_Penalty>
0.00303874

> <i_epik_Tot_Q>
1

> <i_epik_Tot_abs_Q>
1

> <s_epik_Chemistry_Notes>
This compound has an imine and may undergo hydrolysis.

> <s_lp_Force_Field>
S-OPLS

> <r_lp_Energy>
48.4507

> <b_lp_Chiralities_Consistent>
1

> <s_lp_Variant>
CCN(CC)CCCNC1=CC(N=C(/C(CC2)=C/C3=CC=C(C(C)C)C=C3)N2C4=O)=C4C=C1F-1

> <s_i_glide_gridfile>
glide-grid_1

> <i_i_glide_lignum>
1860

> <i_i_glide_rotatable_bonds>
9

> <r_i_docking_score>
-7.3995728378715

> <r_i_glide_ligand_efficiency>
-0.217634495231515

> <r_i_glide_ligand_efficiency_sa>
-0.705051278288329

> <r_i_glide_ligand_efficiency_ln>
-1.6347731908737

> <r_i_glide_gscore>
-7.4007728378715

> <r_i_glide_lipo>
-2.74070068377035

> <r_i_glide_hbond>
-0.32

> <r_i_glide_metal>
0

> <r_i_glide_rewards>
-1.11681474294493

> <r_i_glide_evdw>
-38.1058502197266

> <r_i_glide_ecoul>
-11.1515159606934

> <r_i_glide_erotb>
0.562581926846021

> <r_i_glide_esite>
-0.207819432911914

> <r_i_glide_emodel>
-74.8505002495461

> <r_i_glide_energy>
-49.2573661804199

> <r_i_glide_einternal>
4.17814826965332

> <i_i_glide_confnum>
68

> <i_i_glide_posenum>
391

> <r_i_glide_eff_state_penalty>
0.0012

> <s_m_subgroup_title>
glide-dock_SP_top1262_2_pv

> <s_m_subgroupid>
glide-dock_SP_top1262_2_pv

> <b_m_subgroup_collapsed>
0

$$$$
O=C(C=C)N1C[C@H](C)N(C2=NC(N(C3=C(C)C=CN=C3C(C)C)C4=C2C=C(F)C(C5=C(O)C=CC=C5F...
                    3D
 Schrodinger Suite 2021-3.
  0  0  0     0  0            999 V3000
M  V30 BEGIN CTAB
M  V30 COUNTS 71 75 0 0 0
M  V30 BEGIN ATOM
M  V30 1 F  23.2824 35.9571 84.4453 0
M  V30 2 C  24.5281 36.1143 83.9485 0
M  V30 3 C  24.9509 35.1922 82.9954 0
M  V30 4 C  26.2207 35.2929 82.4450 0
M  V30 5 C  27.0410 36.3569 82.7950 0
M  V30 6 C  26.6123 37.3014 83.7254 0
M  V30 7 O  27.4397 38.3703 83.9513 0
M  V30 8 C  25.3692 37.1621 84.3808 0
M  V30 9 C  24.9743 38.0565 85.5259 0
M  V30 10 N  23.6663 38.4309 85.5888 0
M  V30 11 C  25.8680 38.4111 86.5520 0
M  V30 12 F  27.1389 37.9601 86.5778 0
M  V30 13 C  25.4327 39.2193 87.5976 0
M  V30 14 C  24.0999 39.6427 87.6450 0
M  V30 15 C  23.2243 39.1512 86.6624 0
M  V30 16 C  23.4878 40.4979 88.6979 0
M  V30 17 N  24.3299 41.0928 89.6580 0
M  V30 18 C  25.4391 41.9383 89.1628 0
M  V30 19 C  26.6873 41.8048 90.0590 0
M  V30 20 C  23.9581 41.5782 91.0222 0 CFG=1
M  V30 21 C  22.7860 40.8073 91.6795 0
M  V30 22 C  25.1819 41.4816 91.9771 0
M  V30 23 N  26.2981 42.2525 91.4054 0
M  V30 24 C  26.8634 43.2754 92.1070 0
M  V30 25 O  26.4870 43.5748 93.2431 0
M  V30 26 C  27.9275 44.0253 91.4740 0
M  V30 27 C  28.9582 44.5322 92.1771 0
M  V30 28 N  22.2193 40.6654 88.7849 0
M  V30 29 C  21.3038 40.0687 87.9052 0
M  V30 30 O  20.0827 40.1523 88.0433 0
M  V30 31 N  21.8202 39.3357 86.8490 0
M  V30 32 C  20.9175 38.6553 85.9913 0
M  V30 33 C  20.3730 39.3185 84.8709 0
M  V30 34 C  20.8066 40.7218 84.4827 0
M  V30 35 C  19.4027 38.6686 84.0983 0
M  V30 36 C  19.1096 37.3457 84.3704 0
M  V30 37 N  19.6830 36.6798 85.3905 0
M  V30 38 C  20.5232 37.3207 86.2365 0
M  V30 39 C  20.9500 36.4782 87.4595 0
M  V30 40 C  22.1815 35.6178 87.1581 0
M  V30 41 C  19.8393 35.5169 87.9509 0
M  V30 42 H  24.2882 34.3893 82.7050 0
M  V30 43 H  26.5685 34.5644 81.7290 0
M  V30 44 H  28.0084 36.4436 82.3221 0
M  V30 45 H  28.2956 38.2742 83.5293 0
M  V30 46 H  26.1364 39.4765 88.3740 0
M  V30 47 H  25.1001 42.9758 89.1174 0
M  V30 48 H  25.7207 41.7138 88.1344 0
M  V30 49 H  27.5367 42.3333 89.6302 0
M  V30 50 H  26.9840 40.7579 90.1129 0
M  V30 51 H  23.6542 42.6241 90.9385 0
M  V30 52 H  22.7148 41.0231 92.7465 0
M  V30 53 H  21.8297 41.1104 91.2553 0
M  V30 54 H  22.8829 39.7282 91.5711 0
M  V30 55 H  25.4910 40.4397 92.0768 0
M  V30 56 H  24.9085 41.8206 92.9778 0
M  V30 57 H  27.8664 44.1840 90.4094 0
M  V30 58 H  29.0465 44.3938 93.2470 0
M  V30 59 H  29.7362 45.0977 91.6863 0
M  V30 60 H  20.0843 41.1592 83.8021 0
M  V30 61 H  20.8830 41.3781 85.3495 0
M  V30 62 H  21.7822 40.6949 83.9971 0
M  V30 63 H  18.8829 39.1491 83.2848 0
M  V30 64 H  18.3977 36.7980 83.7701 0
M  V30 65 H  21.1831 37.1556 88.2797 0
M  V30 66 H  23.0305 36.2167 86.8436 0
M  V30 67 H  22.4828 35.0395 88.0318 0
M  V30 68 H  21.9641 34.9074 86.3604 0
M  V30 69 H  18.8966 36.0299 88.1459 0
M  V30 70 H  19.6830 34.7567 87.1934 0
M  V30 71 H  20.1080 34.9381 88.8294 0
M  V30 END ATOM
M  V30 BEGIN BOND
M  V30 1 1 1 2
M  V30 2 2 2 3
M  V30 3 1 2 8
M  V30 4 1 3 4
M  V30 5 1 3 42
M  V30 6 2 4 5
M  V30 7 1 4 43
M  V30 8 1 5 6
M  V30 9 1 5 44
M  V30 10 1 6 7
M  V30 11 2 6 8
M  V30 12 1 7 45
M  V30 13 1 8 9
M  V30 14 2 9 10
M  V30 15 1 9 11
M  V30 16 1 10 15
M  V30 17 1 11 12
M  V30 18 2 11 13
M  V30 19 1 13 14
M  V30 20 1 13 46
M  V30 21 2 14 15
M  V30 22 1 14 16
M  V30 23 1 15 31
M  V30 24 1 16 17
M  V30 25 2 16 28
M  V30 26 1 17 18
M  V30 27 1 17 20
M  V30 28 1 18 19
M  V30 29 1 18 47
M  V30 30 1 18 48
M  V30 31 1 19 23
M  V30 32 1 19 49
M  V30 33 1 19 50
M  V30 34 1 20 21
M  V30 35 1 20 22
M  V30 36 1 20 51
M  V30 37 1 21 52
M  V30 38 1 21 53
M  V30 39 1 21 54
M  V30 40 1 22 23
M  V30 41 1 22 55
M  V30 42 1 22 56
M  V30 43 1 23 24
M  V30 44 2 24 25
M  V30 45 1 24 26
M  V30 46 2 26 27
M  V30 47 1 26 57
M  V30 48 1 27 58
M  V30 49 1 27 59
M  V30 50 1 28 29
M  V30 51 2 29 30
M  V30 52 1 29 31
M  V30 53 1 31 32
M  V30 54 2 32 33
M  V30 55 1 32 38
M  V30 56 1 33 34
M  V30 57 1 33 35
M  V30 58 1 34 60
M  V30 59 1 34 61
M  V30 60 1 34 62
M  V30 61 2 35 36
M  V30 62 1 35 63
M  V30 63 1 36 37
M  V30 64 1 36 64
M  V30 65 2 37 38
M  V30 66 1 38 39
M  V30 67 1 39 40
M  V30 68 1 39 41
M  V30 69 1 39 65
M  V30 70 1 40 66
M  V30 71 1 40 67
M  V30 72 1 40 68
M  V30 73 1 41 69
M  V30 74 1 41 70
M  V30 75 1 41 71
M  V30 END BOND
M  V30 END CTAB
M  END
> <s_m_entry_id>
1227

> <s_m_entry_name>
result.1993

> <s_m_Source_Path>
D:\OneDrive - zju.edu.cn\DOC\A-Finished\LCK_VS\Planet\LCK-8617

> <s_m_Source_File>
glide-dock_SP_top1262_2_pv.maegz

> <i_m_Source_File_Index>
1227

> <PLANET_affinity>
7.309

> <i_lp_mmshare_version>
54117

> <i_f3d_flags>
0

> <s_epik_input>
RmMxW2NIXVtjSF1bY0hdYyhbT0hdKWMxLWMoYyhGKVtjSF0yKW5jKGMyMyluKC1jNGMoW0NIM10pW2NIXVtjSF1uYzRbQ0hdKFtDSDNdKVtDSDNdKWMoPU8pbmMzTjVbQ0gyXVtDSDJdTihbQ0gyXVtDQEBIXTVbQ0gzXSlDKD1PKVtDSF09W0NIMl0=

> <s_epik_cmdline>
J2VwaWtfcHl0aG9uJywgJy1waCcsICc3LjAnLCAnLXRuJywgJzgnLCAnLW1hJywgJzUwMCcsICctaW1hZScsICc8aW5maWxlLm1hZT4nLCAnLW9tYWUnLCAnPG91dGZpbGUubWFlPic=

> <r_epik_Ionization_Penalty>
  0.0074

> <r_epik_Ionization_Penalty_Charging>
  0.0000

> <r_epik_Ionization_Penalty_Neutral>
  0.0074

> <r_epik_State_Penalty>
  0.0054

> <r_epik_Charging_Adjusted_Penalty>
0.00536995

> <i_epik_Tot_Q>
0

> <i_epik_Tot_abs_Q>
0

> <s_lp_Force_Field>
S-OPLS

> <r_lp_Energy>
95.3226

> <b_lp_Chiralities_Consistent>
1

> <s_lp_Variant>
O=C(C=C)N1C[C@H](C)N(C2=NC(N(C3=C(C)C=CN=C3C(C)C)C4=C2C=C(F)C(C5=C(O)C=CC=C5F...-1

> <s_i_glide_gridfile>
glide-grid_1

> <i_i_glide_lignum>
2242

> <i_i_glide_rotatable_bonds>
7

> <r_i_docking_score>
-7.39786987074464

> <r_i_glide_ligand_efficiency>
-0.180435850505967

> <r_i_glide_ligand_efficiency_sa>
-0.622182009727623

> <r_i_glide_ligand_efficiency_ln>
-1.5694827120607

> <r_i_glide_gscore>
-7.40326987074464

> <r_i_glide_lipo>
-3.8846389454202

> <r_i_glide_hbond>
-0.283657380829492

> <r_i_glide_metal>
0

> <r_i_glide_rewards>
-1.0656052305752

> <r_i_glide_evdw>
-42.0822677612305

> <r_i_glide_ecoul>
-1.89747536182404

> <r_i_glide_erotb>
0.250613943362784

> <r_i_glide_esite>
-0.031247564947402

> <r_i_glide_emodel>
-63.6352955903385

> <r_i_glide_energy>
-43.9797431230545

> <r_i_glide_einternal>
6.80328321456909

> <i_i_glide_confnum>
246

> <i_i_glide_posenum>
321

> <r_i_glide_eff_state_penalty>
0.0054

> <r_lp_tautomer_probability>
1

> <s_m_subgroup_title>
glide-dock_SP_top1262_2_pv

> <s_m_subgroupid>
glide-dock_SP_top1262_2_pv

> <b_m_subgroup_collapsed>
0

$$$$
NC(C1=C2N(N=C1C3=CC=C(OC4=CC=CC=C4)C=C3)C(C5CCN(C(C=C)=O)CC5)CCN2)=O
                    3D
 Schrodinger Suite 2021-3.
  0  0  0     0  0            999 V3000
M  V30 BEGIN CTAB
M  V30 COUNTS 64 68 0 0 0
M  V30 BEGIN ATOM
M  V30 1 C  26.1079 40.5566 92.0000 0
M  V30 2 C  26.5535 41.8285 92.0157 0
M  V30 3 C  27.5747 42.3565 91.1357 0
M  V30 4 O  28.5597 42.8911 91.6452 0
M  V30 5 N  27.4037 42.2959 89.7823 0
M  V30 6 C  26.2904 41.6302 89.0828 0
M  V30 7 C  26.8886 40.3948 88.3695 0
M  V30 8 C  28.4416 42.8220 88.8752 0
M  V30 9 C  29.0548 41.6138 88.1305 0
M  V30 10 C  28.0043 40.7753 87.3484 0
M  V30 11 C  28.6375 39.5588 86.5771 0 CFG=2
M  V30 12 C  29.9577 39.8813 85.8255 0
M  V30 13 C  30.4748 38.7019 84.9812 0
M  V30 14 N  29.4630 38.2977 84.0061 0
M  V30 15 N  27.7672 38.8589 85.6086 0
M  V30 16 C  28.1755 38.1436 84.4926 0
M  V30 17 N  26.4872 38.6035 85.8724 0
M  V30 18 C  26.0145 37.8460 84.9119 0
M  V30 19 C  27.0432 37.4839 84.0101 0
M  V30 20 C  26.9124 36.7437 82.7822 0
M  V30 21 O  25.9412 36.8727 82.0438 0
M  V30 22 N  27.9371 35.9566 82.4533 0
M  V30 23 C  24.5569 37.4939 84.9407 0
M  V30 24 C  23.6319 38.3669 85.5315 0
M  V30 25 C  22.2845 38.0309 85.5965 0
M  V30 26 C  21.8493 36.8124 85.0669 0
M  V30 27 C  22.7582 35.9569 84.4565 0
M  V30 28 C  24.1047 36.2858 84.4065 0
M  V30 29 O  20.5596 36.3542 85.1597 0
M  V30 30 C  19.5086 37.2052 85.3373 0
M  V30 31 C  19.0876 37.5596 86.6182 0
M  V30 32 C  17.9562 38.3537 86.7634 0
M  V30 33 C  17.2499 38.7567 85.6313 0
M  V30 34 C  17.6762 38.4097 84.3545 0
M  V30 35 C  18.8165 37.6345 84.2122 0
M  V30 36 H  26.4832 39.8169 91.3088 0
M  V30 37 H  25.3494 40.2349 92.6984 0
M  V30 38 H  26.1691 42.5394 92.7314 0
M  V30 39 H  25.4173 41.4318 89.7022 0
M  V30 40 H  25.9188 42.3345 88.3363 0
M  V30 41 H  27.2780 39.6823 89.0982 0
M  V30 42 H  26.0660 39.8683 87.8952 0
M  V30 43 H  27.9462 43.4806 88.1604 0
M  V30 44 H  29.1817 43.4521 89.3731 0
M  V30 45 H  29.8206 41.9936 87.4552 0
M  V30 46 H  29.5966 40.9785 88.8352 0
M  V30 47 H  27.5515 41.4464 86.6153 0
M  V30 48 H  28.8828 38.8201 87.3397 0
M  V30 49 H  29.8177 40.7617 85.1954 0
M  V30 50 H  30.7335 40.1672 86.5367 0
M  V30 51 H  31.4165 38.9372 84.4838 0
M  V30 52 H  30.6328 37.8353 85.6256 0
M  V30 53 H  29.8222 37.6255 83.3448 0
M  V30 54 H  28.6790 35.7598 83.1056 0
M  V30 55 H  27.9295 35.5224 81.5350 0
M  V30 56 H  23.9548 39.3099 85.9493 0
M  V30 57 H  21.5946 38.7099 86.0745 0
M  V30 58 H  22.4210 35.0184 84.0438 0
M  V30 59 H  24.7884 35.5763 83.9686 0
M  V30 60 H  19.6249 37.2079 87.4859 0
M  V30 61 H  17.6091 38.6424 87.7443 0
M  V30 62 H  16.3578 39.3538 85.7480 0
M  V30 63 H  17.1161 38.7232 83.4861 0
M  V30 64 H  19.1555 37.3315 83.2414 0
M  V30 END ATOM
M  V30 BEGIN BOND
M  V30 1 2 1 2
M  V30 2 1 1 36
M  V30 3 1 1 37
M  V30 4 1 2 3
M  V30 5 1 2 38
M  V30 6 2 3 4
M  V30 7 1 3 5
M  V30 8 1 5 6
M  V30 9 1 5 8
M  V30 10 1 6 7
M  V30 11 1 6 39
M  V30 12 1 6 40
M  V30 13 1 7 10
M  V30 14 1 7 41
M  V30 15 1 7 42
M  V30 16 1 8 9
M  V30 17 1 8 43
M  V30 18 1 8 44
M  V30 19 1 9 10
M  V30 20 1 9 45
M  V30 21 1 9 46
M  V30 22 1 10 11
M  V30 23 1 10 47
M  V30 24 1 11 12
M  V30 25 1 11 15
M  V30 26 1 11 48
M  V30 27 1 12 13
M  V30 28 1 12 49
M  V30 29 1 12 50
M  V30 30 1 13 14
M  V30 31 1 13 51
M  V30 32 1 13 52
M  V30 33 1 14 16
M  V30 34 1 14 53
M  V30 35 1 15 16
M  V30 36 1 15 17
M  V30 37 2 16 19
M  V30 38 2 17 18
M  V30 39 1 18 19
M  V30 40 1 18 23
M  V30 41 1 19 20
M  V30 42 2 20 21
M  V30 43 1 20 22
M  V30 44 1 22 54
M  V30 45 1 22 55
M  V30 46 2 23 24
M  V30 47 1 23 28
M  V30 48 1 24 25
M  V30 49 1 24 56
M  V30 50 2 25 26
M  V30 51 1 25 57
M  V30 52 1 26 27
M  V30 53 1 26 29
M  V30 54 2 27 28
M  V30 55 1 27 58
M  V30 56 1 28 59
M  V30 57 1 29 30
M  V30 58 2 30 31
M  V30 59 1 30 35
M  V30 60 1 31 32
M  V30 61 1 31 60
M  V30 62 2 32 33
M  V30 63 1 32 61
M  V30 64 1 33 34
M  V30 65 1 33 62
M  V30 66 2 34 35
M  V30 67 1 34 63
M  V30 68 1 35 64
M  V30 END BOND
M  V30 END CTAB
M  END
> <s_m_entry_id>
1236

> <s_m_entry_name>
result.3700

> <s_m_Source_Path>
D:\OneDrive - zju.edu.cn\DOC\A-Finished\LCK_VS\Planet\LCK-8617

> <s_m_Source_File>
glide-dock_SP_top1262_2_pv.maegz

> <i_m_Source_File_Index>
1236

> <PLANET_affinity>
8.51

> <i_lp_mmshare_version>
54117

> <i_f3d_flags>
0

> <s_epik_input>
W0NIMl09W0NIXUMoPU8pTjFbQ0gyXVtDSDJdW0NIXShbQ0gyXVtDSDJdMSlbQ0BASF0yW0NIMl1bQ0gyXVtOSF1jKG4yMyljKEMoPU8pW05IMl0pYyhuMyktYzRbY0hdW2NIXWMoW2NIXVtjSF00KU9jNVtjSF1bY0hdW2NIXVtjSF1bY0hdNQ==

> <s_epik_cmdline>
J2VwaWtfcHl0aG9uJywgJy1waCcsICc3LjAnLCAnLXRuJywgJzgnLCAnLW1hJywgJzUwMCcsICctaW1hZScsICc8aW5maWxlLm1hZT4nLCAnLW9tYWUnLCAnPG91dGZpbGUubWFlPic=

> <r_epik_Ionization_Penalty>
  0.0001

> <r_epik_Ionization_Penalty_Charging>
  0.0000

> <r_epik_Ionization_Penalty_Neutral>
  0.0001

> <r_epik_State_Penalty>
  0.0000

> <r_epik_Charging_Adjusted_Penalty>
0

> <i_epik_Tot_Q>
0

> <i_epik_Tot_abs_Q>
0

> <s_lp_Force_Field>
S-OPLS

> <r_lp_Energy>
54.1518

> <b_lp_Chiralities_Consistent>
1

> <s_lp_Variant>
NC(C1=C2N(N=C1C3=CC=C(OC4=CC=CC=C4)C=C3)C(C5CCN(C(C=C)=O)CC5)CCN2)=O-1

> <s_i_glide_gridfile>
glide-grid_1

> <i_i_glide_lignum>
793

> <i_i_glide_rotatable_bonds>
7

> <r_i_docking_score>
-7.39074413045016

> <r_i_glide_ligand_efficiency>
-0.211164118012862

> <r_i_glide_ligand_efficiency_sa>
-0.690731831533962

> <r_i_glide_ligand_efficiency_ln>
-1.62243236536215

> <r_i_glide_gscore>
-7.39074413045016

> <r_i_glide_lipo>
-3.28804171609596

> <r_i_glide_hbond>
-0.601714362426085

> <r_i_glide_metal>
0

> <r_i_glide_rewards>
-0.760655647971723

> <r_i_glide_evdw>
-47.1053733825684

> <r_i_glide_ecoul>
-6.10376405715942

> <r_i_glide_erotb>
0.545423581653102

> <r_i_glide_esite>
-0.0149227079071633

> <r_i_glide_emodel>
-73.0226484463765

> <r_i_glide_energy>
-53.2091374397278

> <r_i_glide_einternal>
7.12797021865845

> <i_i_glide_confnum>
16

> <i_i_glide_posenum>
268

> <r_i_glide_eff_state_penalty>
0

> <r_lp_tautomer_probability>
1

> <s_m_subgroup_title>
glide-dock_SP_top1262_2_pv

> <s_m_subgroupid>
glide-dock_SP_top1262_2_pv

> <b_m_subgroup_collapsed>
0

$$$$
NC(C1=C2N(N=C1C3=CC=C(OC4=CC=CC=C4)C=C3)[C@H](C5CCN(C(C=C)=O)CC5)CCN2)=O
                    3D
 Schrodinger Suite 2021-3.
  0  0  0     0  0            999 V3000
M  V30 BEGIN CTAB
M  V30 COUNTS 64 68 0 0 0
M  V30 BEGIN ATOM
M  V30 1 C  26.1079 40.5566 92.0000 0
M  V30 2 C  26.5535 41.8285 92.0157 0
M  V30 3 C  27.5747 42.3565 91.1357 0
M  V30 4 O  28.5597 42.8911 91.6452 0
M  V30 5 N  27.4037 42.2959 89.7823 0
M  V30 6 C  26.2904 41.6302 89.0828 0
M  V30 7 C  26.8886 40.3948 88.3695 0
M  V30 8 C  28.4416 42.8220 88.8752 0
M  V30 9 C  29.0548 41.6138 88.1305 0
M  V30 10 C  28.0043 40.7753 87.3484 0
M  V30 11 C  28.6375 39.5588 86.5771 0 CFG=2
M  V30 12 C  29.9577 39.8813 85.8255 0
M  V30 13 C  30.4748 38.7019 84.9812 0
M  V30 14 N  29.4630 38.2977 84.0061 0
M  V30 15 N  27.7672 38.8589 85.6086 0
M  V30 16 C  28.1755 38.1436 84.4926 0
M  V30 17 N  26.4872 38.6035 85.8724 0
M  V30 18 C  26.0145 37.8460 84.9119 0
M  V30 19 C  27.0432 37.4839 84.0101 0
M  V30 20 C  26.9124 36.7437 82.7822 0
M  V30 21 O  25.9412 36.8727 82.0438 0
M  V30 22 N  27.9371 35.9566 82.4533 0
M  V30 23 C  24.5569 37.4939 84.9407 0
M  V30 24 C  23.6319 38.3669 85.5315 0
M  V30 25 C  22.2845 38.0309 85.5965 0
M  V30 26 C  21.8493 36.8124 85.0669 0
M  V30 27 C  22.7582 35.9569 84.4565 0
M  V30 28 C  24.1047 36.2858 84.4065 0
M  V30 29 O  20.5596 36.3542 85.1597 0
M  V30 30 C  19.5086 37.2052 85.3373 0
M  V30 31 C  19.0876 37.5596 86.6182 0
M  V30 32 C  17.9562 38.3537 86.7634 0
M  V30 33 C  17.2499 38.7567 85.6313 0
M  V30 34 C  17.6762 38.4097 84.3545 0
M  V30 35 C  18.8165 37.6345 84.2122 0
M  V30 36 H  26.4832 39.8169 91.3088 0
M  V30 37 H  25.3494 40.2349 92.6984 0
M  V30 38 H  26.1691 42.5394 92.7314 0
M  V30 39 H  25.4173 41.4318 89.7022 0
M  V30 40 H  25.9188 42.3345 88.3363 0
M  V30 41 H  27.2780 39.6823 89.0982 0
M  V30 42 H  26.0660 39.8683 87.8952 0
M  V30 43 H  27.9462 43.4806 88.1604 0
M  V30 44 H  29.1817 43.4521 89.3731 0
M  V30 45 H  29.8206 41.9936 87.4552 0
M  V30 46 H  29.5966 40.9785 88.8352 0
M  V30 47 H  27.5515 41.4464 86.6153 0
M  V30 48 H  28.8828 38.8201 87.3397 0
M  V30 49 H  29.8177 40.7617 85.1954 0
M  V30 50 H  30.7335 40.1672 86.5367 0
M  V30 51 H  31.4165 38.9372 84.4838 0
M  V30 52 H  30.6328 37.8353 85.6256 0
M  V30 53 H  29.8222 37.6255 83.3448 0
M  V30 54 H  28.6790 35.7598 83.1056 0
M  V30 55 H  27.9295 35.5224 81.5350 0
M  V30 56 H  23.9548 39.3099 85.9493 0
M  V30 57 H  21.5946 38.7099 86.0745 0
M  V30 58 H  22.4210 35.0184 84.0438 0
M  V30 59 H  24.7884 35.5763 83.9686 0
M  V30 60 H  19.6249 37.2079 87.4859 0
M  V30 61 H  17.6091 38.6424 87.7443 0
M  V30 62 H  16.3578 39.3538 85.7480 0
M  V30 63 H  17.1161 38.7232 83.4861 0
M  V30 64 H  19.1555 37.3315 83.2414 0
M  V30 END ATOM
M  V30 BEGIN BOND
M  V30 1 2 1 2
M  V30 2 1 1 36
M  V30 3 1 1 37
M  V30 4 1 2 3
M  V30 5 1 2 38
M  V30 6 2 3 4
M  V30 7 1 3 5
M  V30 8 1 5 6
M  V30 9 1 5 8
M  V30 10 1 6 7
M  V30 11 1 6 39
M  V30 12 1 6 40
M  V30 13 1 7 10
M  V30 14 1 7 41
M  V30 15 1 7 42
M  V30 16 1 8 9
M  V30 17 1 8 43
M  V30 18 1 8 44
M  V30 19 1 9 10
M  V30 20 1 9 45
M  V30 21 1 9 46
M  V30 22 1 10 11
M  V30 23 1 10 47
M  V30 24 1 11 12
M  V30 25 1 11 15
M  V30 26 1 11 48
M  V30 27 1 12 13
M  V30 28 1 12 49
M  V30 29 1 12 50
M  V30 30 1 13 14
M  V30 31 1 13 51
M  V30 32 1 13 52
M  V30 33 1 14 16
M  V30 34 1 14 53
M  V30 35 1 15 16
M  V30 36 1 15 17
M  V30 37 2 16 19
M  V30 38 2 17 18
M  V30 39 1 18 19
M  V30 40 1 18 23
M  V30 41 1 19 20
M  V30 42 2 20 21
M  V30 43 1 20 22
M  V30 44 1 22 54
M  V30 45 1 22 55
M  V30 46 2 23 24
M  V30 47 1 23 28
M  V30 48 1 24 25
M  V30 49 1 24 56
M  V30 50 2 25 26
M  V30 51 1 25 57
M  V30 52 1 26 27
M  V30 53 1 26 29
M  V30 54 2 27 28
M  V30 55 1 27 58
M  V30 56 1 28 59
M  V30 57 1 29 30
M  V30 58 2 30 31
M  V30 59 1 30 35
M  V30 60 1 31 32
M  V30 61 1 31 60
M  V30 62 2 32 33
M  V30 63 1 32 61
M  V30 64 1 33 34
M  V30 65 1 33 62
M  V30 66 2 34 35
M  V30 67 1 34 63
M  V30 68 1 35 64
M  V30 END BOND
M  V30 END CTAB
M  END
> <s_m_entry_id>
1237

> <s_m_entry_name>
result.3701

> <s_m_Source_Path>
D:\OneDrive - zju.edu.cn\DOC\A-Finished\LCK_VS\Planet\LCK-8617

> <s_m_Source_File>
glide-dock_SP_top1262_2_pv.maegz

> <i_m_Source_File_Index>
1237

> <PLANET_affinity>
8.51

> <i_lp_mmshare_version>
54117

> <i_f3d_flags>
0

> <s_epik_input>
W0NIMl09W0NIXUMoPU8pTjFbQ0gyXVtDSDJdW0NIXShbQ0gyXVtDSDJdMSlbQ0BASF0yW0NIMl1bQ0gyXVtOSF1jKG4yMyljKEMoPU8pW05IMl0pYyhuMyktYzRbY0hdW2NIXWMoW2NIXVtjSF00KU9jNVtjSF1bY0hdW2NIXVtjSF1bY0hdNQ==

> <s_epik_cmdline>
J2VwaWtfcHl0aG9uJywgJy1waCcsICc3LjAnLCAnLXRuJywgJzgnLCAnLW1hJywgJzUwMCcsICctaW1hZScsICc8aW5maWxlLm1hZT4nLCAnLW9tYWUnLCAnPG91dGZpbGUubWFlPic=

> <r_epik_Ionization_Penalty>
  0.0001

> <r_epik_Ionization_Penalty_Charging>
  0.0000

> <r_epik_Ionization_Penalty_Neutral>
  0.0001

> <r_epik_State_Penalty>
  0.0000

> <r_epik_Charging_Adjusted_Penalty>
0

> <i_epik_Tot_Q>
0

> <i_epik_Tot_abs_Q>
0

> <s_lp_Force_Field>
S-OPLS

> <r_lp_Energy>
54.1518

> <b_lp_Chiralities_Consistent>
1

> <s_lp_Variant>
NC(C1=C2N(N=C1C3=CC=C(OC4=CC=CC=C4)C=C3)[C@H](C5CCN(C(C=C)=O)CC5)CCN2)=O-1

> <s_i_glide_gridfile>
glide-grid_1

> <i_i_glide_lignum>
794

> <i_i_glide_rotatable_bonds>
7

> <r_i_docking_score>
-7.39074413045016

> <r_i_glide_ligand_efficiency>
-0.211164118012862

> <r_i_glide_ligand_efficiency_sa>
-0.690731831533962

> <r_i_glide_ligand_efficiency_ln>
-1.62243236536215

> <r_i_glide_gscore>
-7.39074413045016

> <r_i_glide_lipo>
-3.28804171609596

> <r_i_glide_hbond>
-0.601714362426085

> <r_i_glide_metal>
0

> <r_i_glide_rewards>
-0.760655647971723

> <r_i_glide_evdw>
-47.1053733825684

> <r_i_glide_ecoul>
-6.10376405715942

> <r_i_glide_erotb>
0.545423581653102

> <r_i_glide_esite>
-0.0149227079071633

> <r_i_glide_emodel>
-73.0226484463765

> <r_i_glide_energy>
-53.2091374397278

> <r_i_glide_einternal>
7.12797021865845

> <i_i_glide_confnum>
16

> <i_i_glide_posenum>
268

> <r_i_glide_eff_state_penalty>
0

> <r_lp_tautomer_probability>
1

> <s_m_subgroup_title>
glide-dock_SP_top1262_2_pv

> <s_m_subgroupid>
glide-dock_SP_top1262_2_pv

> <b_m_subgroup_collapsed>
0

$$$$
O=C(N1[C@H](C(N(C)C)=S)CCC1)NCC2=CC=C(C(N3C4=CC=CC=C4NC(N(C)N=C5)=C5C3)=O)C=C...
                    3D
 Schrodinger Suite 2021-3.
  0  0  0     0  0            999 V3000
M  V30 BEGIN CTAB
M  V30 COUNTS 71 75 0 0 0
M  V30 BEGIN ATOM
M  V30 1 C  30.9447 37.0537 82.8470 0
M  V30 2 N  31.0587 38.2729 83.6689 0
M  V30 3 C  30.8320 38.0339 85.0984 0
M  V30 4 C  31.6628 39.4288 83.2000 0
M  V30 5 S  32.5001 39.5594 81.7498 0
M  V30 6 C  31.5735 40.7166 84.0629 0 CFG=2
M  V30 7 C  32.6157 40.8465 85.1901 0
M  V30 8 C  31.8258 41.0275 86.4749 0
M  V30 9 C  30.4758 41.5948 86.0463 0
M  V30 10 N  30.2677 41.0621 84.6877 0
M  V30 11 C  29.0840 41.1243 84.0141 0
M  V30 12 O  28.9685 40.7620 82.8436 0
M  V30 13 N  28.0184 41.5532 84.7221 0
M  V30 14 C  26.6251 41.5086 84.2659 0
M  V30 15 C  25.6062 40.7081 85.0926 0
M  V30 16 C  24.2601 41.0128 84.8427 0
M  V30 17 C  23.2290 40.3318 85.4840 0
M  V30 18 C  23.5281 39.3458 86.4227 0
M  V30 19 C  24.8630 39.0803 86.7343 0
M  V30 20 C  25.9074 39.7156 86.0566 0
M  V30 21 C  27.3166 39.2406 86.3818 0
M  V30 22 C  22.4215 38.6056 87.1251 0
M  V30 23 O  21.8711 39.1952 88.0592 0
M  V30 24 N  22.0678 37.3384 86.7193 0
M  V30 25 C  20.8503 36.7796 87.3432 0
M  V30 26 C  19.6251 37.2044 86.5749 0
M  V30 27 C  18.3517 37.6008 87.0132 0
M  V30 28 N  17.5529 37.9559 86.0345 0
M  V30 29 N  18.2852 37.7904 84.9278 0
M  V30 30 C  17.6875 38.0681 83.6284 0
M  V30 31 C  19.5517 37.3321 85.2033 0
M  V30 32 N  20.4700 37.0619 84.2248 0
M  V30 33 C  21.7955 36.6004 84.3532 0
M  V30 34 C  22.6040 36.7855 85.5180 0
M  V30 35 C  22.3591 35.9563 83.2452 0
M  V30 36 C  23.6900 35.5574 83.2154 0
M  V30 37 C  24.4964 35.7950 84.3178 0
M  V30 38 C  23.9430 36.3570 85.4629 0
M  V30 39 H  31.8508 36.4548 82.9275 0
M  V30 40 H  30.7734 37.2656 81.7928 0
M  V30 41 H  30.1077 36.4374 83.1701 0
M  V30 42 H  31.7802 37.8743 85.6138 0
M  V30 43 H  30.2922 38.8280 85.6023 0
M  V30 44 H  30.2183 37.1479 85.2437 0
M  V30 45 H  31.7549 41.5564 83.3910 0
M  V30 46 H  33.2940 39.9939 85.2589 0
M  V30 47 H  33.2345 41.7262 85.0096 0
M  V30 48 H  31.6818 40.0605 86.9596 0
M  V30 49 H  32.3273 41.6652 87.2027 0
M  V30 50 H  29.6853 41.3042 86.7384 0
M  V30 51 H  30.5079 42.6854 85.9960 0
M  V30 52 H  28.1786 41.9277 85.6446 0
M  V30 53 H  26.2930 42.5464 84.2006 0
M  V30 54 H  26.5511 41.1210 83.2473 0
M  V30 55 H  24.0012 41.7719 84.1170 0
M  V30 56 H  22.2013 40.5746 85.2479 0
M  V30 57 H  25.0932 38.3445 87.4910 0
M  V30 58 H  27.3184 38.3329 86.9867 0
M  V30 59 H  27.8509 38.9941 85.4650 0
M  V30 60 H  27.8707 40.0092 86.9206 0
M  V30 61 H  20.9276 35.6919 87.3742 0
M  V30 62 H  20.7654 37.0763 88.3894 0
M  V30 63 H  18.0209 37.6520 88.0409 0
M  V30 64 H  18.2804 38.8213 83.1125 0
M  V30 65 H  17.6830 37.1563 83.0324 0
M  V30 66 H  16.6637 38.4237 83.7407 0
M  V30 67 H  20.1086 37.0653 83.2838 0
M  V30 68 H  21.7496 35.7712 82.3721 0
M  V30 69 H  24.0932 35.0807 82.3338 0
M  V30 70 H  25.5343 35.4928 84.3084 0
M  V30 71 H  24.5769 36.4569 86.3299 0
M  V30 END ATOM
M  V30 BEGIN BOND
M  V30 1 1 1 2
M  V30 2 1 1 39
M  V30 3 1 1 40
M  V30 4 1 1 41
M  V30 5 1 2 3
M  V30 6 1 2 4
M  V30 7 1 3 42
M  V30 8 1 3 43
M  V30 9 1 3 44
M  V30 10 2 4 5
M  V30 11 1 4 6
M  V30 12 1 6 7
M  V30 13 1 6 10
M  V30 14 1 6 45
M  V30 15 1 7 8
M  V30 16 1 7 46
M  V30 17 1 7 47
M  V30 18 1 8 9
M  V30 19 1 8 48
M  V30 20 1 8 49
M  V30 21 1 9 10
M  V30 22 1 9 50
M  V30 23 1 9 51
M  V30 24 1 10 11
M  V30 25 2 11 12
M  V30 26 1 11 13
M  V30 27 1 13 14
M  V30 28 1 13 52
M  V30 29 1 14 15
M  V30 30 1 14 53
M  V30 31 1 14 54
M  V30 32 2 15 16
M  V30 33 1 15 20
M  V30 34 1 16 17
M  V30 35 1 16 55
M  V30 36 2 17 18
M  V30 37 1 17 56
M  V30 38 1 18 19
M  V30 39 1 18 22
M  V30 40 2 19 20
M  V30 41 1 19 57
M  V30 42 1 20 21
M  V30 43 1 21 58
M  V30 44 1 21 59
M  V30 45 1 21 60
M  V30 46 2 22 23
M  V30 47 1 22 24
M  V30 48 1 24 25
M  V30 49 1 24 34
M  V30 50 1 25 26
M  V30 51 1 25 61
M  V30 52 1 25 62
M  V30 53 1 26 27
M  V30 54 2 26 31
M  V30 55 2 27 28
M  V30 56 1 27 63
M  V30 57 1 28 29
M  V30 58 1 29 30
M  V30 59 1 29 31
M  V30 60 1 30 64
M  V30 61 1 30 65
M  V30 62 1 30 66
M  V30 63 1 31 32
M  V30 64 1 32 33
M  V30 65 1 32 67
M  V30 66 2 33 34
M  V30 67 1 33 35
M  V30 68 1 34 38
M  V30 69 2 35 36
M  V30 70 1 35 68
M  V30 71 1 36 37
M  V30 72 1 36 69
M  V30 73 2 37 38
M  V30 74 1 37 70
M  V30 75 1 38 71
M  V30 END BOND
M  V30 END CTAB
M  END
> <s_m_entry_id>
1244

> <s_m_entry_name>
result.8394

> <s_m_Source_Path>
D:\OneDrive - zju.edu.cn\DOC\A-Finished\LCK_VS\Planet\LCK-8617

> <s_m_Source_File>
glide-dock_SP_top1262_2_pv.maegz

> <i_m_Source_File_Index>
1244

> <PLANET_affinity>
8.647

> <i_lp_mmshare_version>
54117

> <i_f3d_flags>
0

> <s_epik_input>
W0NIM11OKFtDSDNdKUMoPVMpW0NAQEhdMVtDSDJdW0NIMl1bQ0gyXU4xQyg9TylbTkhdW0NIMl1jMltjSF1bY0hdYyhbY0hdYzJbQ0gzXSlDKD1PKU4oW0NIMl0zKWMoW2NIXVtjSF1bY0hdW2NIXTQpYzRbTkhdYyhjMzUpbihbQ0gzXSluW2NIXTU=

> <s_epik_cmdline>
J2VwaWtfcHl0aG9uJywgJy1waCcsICc3LjAnLCAnLXRuJywgJzgnLCAnLW1hJywgJzUwMCcsICctaW1hZScsICc8aW5maWxlLm1hZT4nLCAnLW9tYWUnLCAnPG91dGZpbGUubWFlPic=

> <r_epik_Ionization_Penalty>
  0.0001

> <r_epik_Ionization_Penalty_Charging>
  0.0000

> <r_epik_Ionization_Penalty_Neutral>
  0.0001

> <r_epik_State_Penalty>
  0.0000

> <r_epik_Charging_Adjusted_Penalty>
0

> <i_epik_Tot_Q>
0

> <i_epik_Tot_abs_Q>
0

> <s_lp_Force_Field>
S-OPLS

> <r_lp_Energy>
89.5142

> <b_lp_Chiralities_Consistent>
1

> <s_lp_Variant>
O=C(N1[C@H](C(N(C)C)=S)CCC1)NCC2=CC=C(C(N3C4=CC=CC=C4NC(N(C)N=C5)=C5C3)=O)C=C...-1

> <s_i_glide_gridfile>
glide-grid_1

> <i_i_glide_lignum>
690

> <i_i_glide_rotatable_bonds>
8

> <r_i_docking_score>
-7.38646481302211

> <r_i_glide_ligand_efficiency>
-0.194380652974266

> <r_i_glide_ligand_efficiency_sa>
-0.653502974064615

> <r_i_glide_ligand_efficiency_ln>
-1.5927391014678

> <r_i_glide_gscore>
-7.38646481302211

> <r_i_glide_lipo>
-3.13982950267689

> <r_i_glide_hbond>
-0.32

> <r_i_glide_metal>
0

> <r_i_glide_rewards>
-1.03990808198478

> <r_i_glide_evdw>
-48.048152923584

> <r_i_glide_ecoul>
-6.01091718673706

> <r_i_glide_erotb>
0.510653982162562

> <r_i_glide_esite>
-0.0933359863332422

> <r_i_glide_emodel>
-72.1518339288067

> <r_i_glide_energy>
-54.059070110321

> <r_i_glide_einternal>
8.52364826202393

> <i_i_glide_confnum>
76

> <i_i_glide_posenum>
233

> <r_i_glide_eff_state_penalty>
0

> <r_lp_tautomer_probability>
1

> <s_m_subgroup_title>
glide-dock_SP_top1262_2_pv

> <s_m_subgroupid>
glide-dock_SP_top1262_2_pv

> <b_m_subgroup_collapsed>
0

$$$$
O=C(NC1=CC=CC(C2=CC=NC3=C(C4=CC=C(CN(C)C)C=C4)C=NN23)=C1)C5=CC=CC(C(F)(F)F)=C5
                    3D
 Schrodinger Suite 2021-3.
  0  0  0     0  0            999 V3000
M  V30 BEGIN CTAB
M  V30 COUNTS 63 67 0 0 0
M  V30 BEGIN ATOM
M  V30 1 F  26.1202 40.2970 91.3214 0
M  V30 2 C  25.4500 40.9380 92.2783 0
M  V30 3 F  26.2509 41.8813 92.7800 0
M  V30 4 F  25.1556 40.0668 93.2429 0
M  V30 5 C  24.1576 41.5441 91.7314 0
M  V30 6 C  23.5651 41.0446 90.5636 0
M  V30 7 C  23.5540 42.6158 92.4000 0
M  V30 8 C  22.3850 43.1834 91.9037 0
M  V30 9 C  21.8050 42.6802 90.7407 0
M  V30 10 C  22.3737 41.5921 90.0557 0
M  V30 11 C  21.6807 41.0469 88.8176 0
M  V30 12 O  20.6347 41.5746 88.4430 0
M  V30 13 N  22.2237 39.9629 88.2154 0
M  V30 14 C  21.7585 39.2683 87.0743 0
M  V30 15 C  20.4557 39.3653 86.5571 0
M  V30 16 C  20.1089 38.6817 85.3963 0
M  V30 17 C  21.0547 37.9027 84.7366 0
M  V30 18 C  22.3636 37.7717 85.2242 0
M  V30 19 C  22.6765 38.4360 86.4256 0
M  V30 20 C  23.3692 36.9627 84.4477 0
M  V30 21 C  23.0048 35.8689 83.6574 0
M  V30 22 C  23.9808 35.1936 82.9299 0
M  V30 23 N  25.2988 35.5156 82.9545 0
M  V30 24 N  24.7143 37.3030 84.4435 0
M  V30 25 C  25.6645 36.5718 83.6986 0
M  V30 26 N  25.2908 38.3663 85.0517 0
M  V30 27 C  26.5664 38.2916 84.7604 0
M  V30 28 C  26.9199 37.2103 83.9509 0
M  V30 29 C  28.2972 36.8605 83.4753 0
M  V30 30 C  28.4929 35.8844 82.4948 0
M  V30 31 C  29.7765 35.5582 82.0725 0
M  V30 32 C  30.8808 36.2064 82.6306 0
M  V30 33 C  30.6978 37.1627 83.6291 0
M  V30 34 C  29.4110 37.4883 84.0461 0
M  V30 35 C  32.2827 35.8478 82.1650 0
M  V30 36 N  32.6836 36.5424 80.8439 0 CHG=1
M  V30 37 C  32.7405 38.0803 80.9468 0
M  V30 38 C  33.9836 35.9595 80.2556 0
M  V30 39 H  24.0446 40.2158 90.0617 0
M  V30 40 H  23.9926 43.0125 93.3060 0
M  V30 41 H  21.9285 44.0159 92.4155 0
M  V30 42 H  20.9016 43.1537 90.3773 0
M  V30 43 H  23.1101 39.6442 88.5722 0
M  V30 44 H  19.6923 39.9637 87.0280 0
M  V30 45 H  19.1058 38.7697 85.0024 0
M  V30 46 H  20.7606 37.4165 83.8171 0
M  V30 47 H  23.6598 38.3290 86.8585 0
M  V30 48 H  21.9830 35.5290 83.5999 0
M  V30 49 H  23.6968 34.3573 82.3088 0
M  V30 50 H  27.2398 39.0398 85.1462 0
M  V30 51 H  27.6573 35.3737 82.0436 0
M  V30 52 H  29.9001 34.8019 81.3097 0
M  V30 53 H  31.5465 37.6545 84.0850 0
M  V30 54 H  29.2967 38.2304 84.8216 0
M  V30 55 H  33.0467 36.1200 82.8954 0
M  V30 56 H  32.3532 34.7750 81.9700 0
M  V30 57 H  33.4967 38.3420 81.6874 0
M  V30 58 H  32.9929 38.4708 79.9588 0
M  V30 59 H  31.7491 38.4306 81.2409 0
M  V30 60 H  34.7934 36.1553 80.9617 0
M  V30 61 H  33.8267 34.8889 80.1094 0
M  V30 62 H  34.1602 36.4482 79.2963 0
M  V30 63 H  31.9443 36.3085 80.1886 0
M  V30 END ATOM
M  V30 BEGIN BOND
M  V30 1 1 1 2
M  V30 2 1 2 3
M  V30 3 1 2 4
M  V30 4 1 2 5
M  V30 5 2 5 6
M  V30 6 1 5 7
M  V30 7 1 6 10
M  V30 8 1 6 39
M  V30 9 2 7 8
M  V30 10 1 7 40
M  V30 11 1 8 9
M  V30 12 1 8 41
M  V30 13 2 9 10
M  V30 14 1 9 42
M  V30 15 1 10 11
M  V30 16 2 11 12
M  V30 17 1 11 13
M  V30 18 1 13 14
M  V30 19 1 13 43
M  V30 20 2 14 15
M  V30 21 1 14 19
M  V30 22 1 15 16
M  V30 23 1 15 44
M  V30 24 2 16 17
M  V30 25 1 16 45
M  V30 26 1 17 18
M  V30 27 1 17 46
M  V30 28 2 18 19
M  V30 29 1 18 20
M  V30 30 1 19 47
M  V30 31 2 20 21
M  V30 32 1 20 24
M  V30 33 1 21 22
M  V30 34 1 21 48
M  V30 35 2 22 23
M  V30 36 1 22 49
M  V30 37 1 23 25
M  V30 38 1 24 25
M  V30 39 1 24 26
M  V30 40 2 25 28
M  V30 41 2 26 27
M  V30 42 1 27 28
M  V30 43 1 27 50
M  V30 44 1 28 29
M  V30 45 2 29 30
M  V30 46 1 29 34
M  V30 47 1 30 31
M  V30 48 1 30 51
M  V30 49 2 31 32
M  V30 50 1 31 52
M  V30 51 1 32 33
M  V30 52 1 32 35
M  V30 53 2 33 34
M  V30 54 1 33 53
M  V30 55 1 34 54
M  V30 56 1 35 36
M  V30 57 1 35 55
M  V30 58 1 35 56
M  V30 59 1 36 37
M  V30 60 1 36 38
M  V30 61 1 36 63
M  V30 62 1 37 57
M  V30 63 1 37 58
M  V30 64 1 37 59
M  V30 65 1 38 60
M  V30 66 1 38 61
M  V30 67 1 38 62
M  V30 END BOND
M  V30 END CTAB
M  END
> <s_m_entry_id>
1260

> <s_m_entry_name>
result.1752

> <s_m_Source_Path>
D:\OneDrive - zju.edu.cn\DOC\A-Finished\LCK_VS\Planet\LCK-8617

> <s_m_Source_File>
glide-dock_SP_top1262_2_pv.maegz

> <i_m_Source_File_Index>
1260

> <PLANET_affinity>
7.351

> <i_lp_mmshare_version>
54117

> <i_f3d_flags>
0

> <s_epik_input>
RkMoRikoRiljMVtjSF1jKFtjSF1bY0hdW2NIXTEpQyg9TylbTkhdYzJbY0hdW2NIXVtjSF1jKFtjSF0yKS1jM1tjSF1bY0hdbmMobjM0KWMoW2NIXW40KS1jNVtjSF1bY0hdYyhbY0hdW2NIXTUpW0NIMl1OKFtDSDNdKVtDSDNd

> <s_epik_cmdline>
J2VwaWtfcHl0aG9uJywgJy1waCcsICc3LjAnLCAnLXRuJywgJzgnLCAnLW1hJywgJzUwMCcsICctaW1hZScsICc8aW5maWxlLm1hZT4nLCAnLW9tYWUnLCAnPG91dGZpbGUubWFlPic=

> <r_epik_Ionization_Penalty>
  0.0461

> <r_epik_Ionization_Penalty_Charging>
  0.0461

> <r_epik_Ionization_Penalty_Neutral>
  0.0000

> <r_epik_State_Penalty>
  0.0392

> <r_epik_Charging_Adjusted_Penalty>
0.0852704

> <i_epik_Tot_Q>
1

> <i_epik_Tot_abs_Q>
1

> <s_lp_Force_Field>
S-OPLS

> <r_lp_Energy>
65.8115

> <b_lp_Chiralities_Consistent>
1

> <s_lp_Variant>
O=C(NC1=CC=CC(C2=CC=NC3=C(C4=CC=C(CN(C)C)C=C4)C=NN23)=C1)C5=CC=CC(C(F)(F)F)=C5-1

> <s_i_glide_gridfile>
glide-grid_1

> <i_i_glide_lignum>
2174

> <i_i_glide_rotatable_bonds>
8

> <r_i_docking_score>
-7.37823326654158

> <r_i_glide_ligand_efficiency>
-0.194164033330042

> <r_i_glide_ligand_efficiency_sa>
-0.652774704148986

> <r_i_glide_ligand_efficiency_ln>
-1.59096413789903

> <r_i_glide_gscore>
-7.41743326654158

> <r_i_glide_lipo>
-3.18688570553474

> <r_i_glide_hbond>
-0.131824311746959

> <r_i_glide_metal>
0

> <r_i_glide_rewards>
-1.4773169403258

> <r_i_glide_evdw>
-47.3036651611328

> <r_i_glide_ecoul>
-4.23778009414673

> <r_i_glide_erotb>
0.461590534661923

> <r_i_glide_esite>
-0.0821465714173544

> <r_i_glide_emodel>
-78.0685127113903

> <r_i_glide_energy>
-51.5414452552795

> <r_i_glide_einternal>
4.12335777282715

> <i_i_glide_confnum>
13

> <i_i_glide_posenum>
65

> <r_i_glide_eff_state_penalty>
0.0392

> <s_m_subgroup_title>
glide-dock_SP_top1262_2_pv

> <s_m_subgroupid>
glide-dock_SP_top1262_2_pv

> <b_m_subgroup_collapsed>
0

$$$$
OC1=CC=C(C)N=C1CN2C3=CC(CNC4=CC(C)=CC=C4CCCO)=CC=C3N=C2NCCCN5CCOCC5
                    3D
 Schrodinger Suite 2021-3.
  0  0  0     0  0            999 V3000
M  V30 BEGIN CTAB
M  V30 COUNTS 85 89 0 0 0
M  V30 BEGIN ATOM
M  V30 1 C  34.2032 35.1386 80.4505 0
M  V30 2 C  34.8878 34.7197 79.1360 0
M  V30 3 O  35.6109 35.8212 78.5901 0
M  V30 4 C  34.7793 36.9087 78.2063 0
M  V30 5 C  34.0483 37.4906 79.4407 0
M  V30 6 N  33.2864 36.3612 80.1904 0 CHG=1
M  V30 7 C  32.6700 36.9315 81.4955 0
M  V30 8 C  31.6811 35.9399 82.1466 0
M  V30 9 C  31.1635 36.4137 83.5194 0
M  V30 10 N  30.1176 37.4475 83.4854 0
M  V30 11 C  28.7913 37.1431 83.3857 0
M  V30 12 N  27.7135 37.9216 83.7727 0
M  V30 13 C  27.7609 39.3023 84.2887 0
M  V30 14 C  27.4941 39.4621 85.7828 0
M  V30 15 N  26.1925 39.3475 86.1615 0
M  V30 16 C  25.8753 39.4954 87.4674 0
M  V30 17 C  24.4205 39.2824 87.8163 0
M  V30 18 C  26.8189 39.8253 88.4374 0
M  V30 19 C  28.1504 39.9562 88.0417 0
M  V30 20 C  28.5093 39.7459 86.7056 0
M  V30 21 O  29.8260 39.8019 86.3349 0
M  V30 22 N  28.3064 35.9659 82.8782 0 CHG=1
M  V30 23 C  26.9374 35.9284 83.0358 0
M  V30 24 C  26.5596 37.1370 83.6444 0
M  V30 25 C  26.0097 34.9334 82.7247 0
M  V30 26 C  24.6921 35.1570 83.1224 0
M  V30 27 C  24.3026 36.3197 83.7983 0
M  V30 28 C  25.2241 37.3567 84.0070 0
M  V30 29 C  22.8565 36.4097 84.3216 0
M  V30 30 N  22.4742 37.7238 84.8429 0
M  V30 31 C  21.3575 37.9575 85.6713 0
M  V30 32 C  20.6084 36.9111 86.2299 0
M  V30 33 C  19.5133 37.1750 87.0567 0
M  V30 34 C  18.7359 36.0466 87.7142 0
M  V30 35 C  19.1344 38.4966 87.3028 0
M  V30 36 C  19.8667 39.5440 86.7611 0
M  V30 37 C  20.9903 39.2904 85.9626 0
M  V30 38 C  21.7840 40.4958 85.4538 0
M  V30 39 C  21.3060 40.9947 84.0916 0
M  V30 40 C  21.8473 42.3751 83.7020 0
M  V30 41 O  23.2454 42.3506 83.4868 0
M  V30 42 H  34.9251 35.4231 81.2188 0
M  V30 43 H  33.5820 34.3275 80.8195 0
M  V30 44 H  34.1554 34.3367 78.4142 0
M  V30 45 H  35.5783 33.8947 79.3291 0
M  V30 46 H  34.0832 36.5828 77.4394 0
M  V30 47 H  35.3824 37.6815 77.7380 0
M  V30 48 H  33.3078 38.2421 79.1468 0
M  V30 49 H  34.7440 37.9345 80.1540 0
M  V30 50 H  32.1604 37.8570 81.2119 0
M  V30 51 H  33.5050 37.1792 82.1647 0
M  V30 52 H  32.1700 34.9805 82.3168 0
M  V30 53 H  30.8508 35.7350 81.4717 0
M  V30 54 H  31.9647 36.7703 84.1720 0
M  V30 55 H  30.7203 35.5666 84.0413 0
M  V30 56 H  30.3831 38.3653 83.8289 0
M  V30 57 H  28.7165 39.7640 84.0250 0
M  V30 58 H  27.0141 39.8798 83.7389 0
M  V30 59 H  24.2185 39.5744 88.8434 0
M  V30 60 H  23.7913 39.9324 87.2183 0
M  V30 61 H  24.1237 38.2399 87.6427 0
M  V30 62 H  26.5353 39.9547 89.4723 0
M  V30 63 H  28.8954 40.1991 88.7819 0
M  V30 64 H  26.3107 34.0091 82.2541 0
M  V30 65 H  23.9440 34.4012 82.9175 0
M  V30 66 H  24.9037 38.2780 84.4500 0
M  V30 67 H  22.7477 35.6476 85.0925 0
M  V30 68 H  22.1690 36.1366 83.5213 0
M  V30 69 H  22.7652 38.5162 84.2941 0
M  V30 70 H  20.8644 35.8778 86.0378 0
M  V30 71 H  18.5811 36.2618 88.7654 0
M  V30 72 H  17.7486 35.9567 87.2551 0
M  V30 73 H  19.2791 35.1072 87.6559 0
M  V30 74 H  18.2791 38.7105 87.9304 0
M  V30 75 H  19.5617 40.5619 86.9549 0
M  V30 76 H  22.8497 40.2788 85.4005 0
M  V30 77 H  21.7042 41.2947 86.1916 0
M  V30 78 H  20.2171 41.0347 84.0574 0
M  V30 79 H  21.6014 40.2751 83.3274 0
M  V30 80 H  21.6854 43.0892 84.5118 0
M  V30 81 H  21.2833 42.7565 82.8451 0
M  V30 82 H  23.5424 43.2464 83.2777 0
M  V30 83 H  30.4004 39.8020 87.1086 0
M  V30 84 H  28.9118 35.2536 82.4841 0
M  V30 85 H  32.5383 36.0393 79.5854 0
M  V30 END ATOM
M  V30 BEGIN BOND
M  V30 1 1 1 2
M  V30 2 1 1 6
M  V30 3 1 1 42
M  V30 4 1 1 43
M  V30 5 1 2 3
M  V30 6 1 2 44
M  V30 7 1 2 45
M  V30 8 1 3 4
M  V30 9 1 4 5
M  V30 10 1 4 46
M  V30 11 1 4 47
M  V30 12 1 5 6
M  V30 13 1 5 48
M  V30 14 1 5 49
M  V30 15 1 6 7
M  V30 16 1 6 85
M  V30 17 1 7 8
M  V30 18 1 7 50
M  V30 19 1 7 51
M  V30 20 1 8 9
M  V30 21 1 8 52
M  V30 22 1 8 53
M  V30 23 1 9 10
M  V30 24 1 9 54
M  V30 25 1 9 55
M  V30 26 1 10 11
M  V30 27 1 10 56
M  V30 28 1 11 12
M  V30 29 2 11 22
M  V30 30 1 12 13
M  V30 31 1 12 24
M  V30 32 1 13 14
M  V30 33 1 13 57
M  V30 34 1 13 58
M  V30 35 2 14 15
M  V30 36 1 14 20
M  V30 37 1 15 16
M  V30 38 1 16 17
M  V30 39 2 16 18
M  V30 40 1 17 59
M  V30 41 1 17 60
M  V30 42 1 17 61
M  V30 43 1 18 19
M  V30 44 1 18 62
M  V30 45 2 19 20
M  V30 46 1 19 63
M  V30 47 1 20 21
M  V30 48 1 21 83
M  V30 49 1 22 23
M  V30 50 1 22 84
M  V30 51 2 23 24
M  V30 52 1 23 25
M  V30 53 1 24 28
M  V30 54 2 25 26
M  V30 55 1 25 64
M  V30 56 1 26 27
M  V30 57 1 26 65
M  V30 58 2 27 28
M  V30 59 1 27 29
M  V30 60 1 28 66
M  V30 61 1 29 30
M  V30 62 1 29 67
M  V30 63 1 29 68
M  V30 64 1 30 31
M  V30 65 1 30 69
M  V30 66 2 31 32
M  V30 67 1 31 37
M  V30 68 1 32 33
M  V30 69 1 32 70
M  V30 70 1 33 34
M  V30 71 2 33 35
M  V30 72 1 34 71
M  V30 73 1 34 72
M  V30 74 1 34 73
M  V30 75 1 35 36
M  V30 76 1 35 74
M  V30 77 2 36 37
M  V30 78 1 36 75
M  V30 79 1 37 38
M  V30 80 1 38 39
M  V30 81 1 38 76
M  V30 82 1 38 77
M  V30 83 1 39 40
M  V30 84 1 39 78
M  V30 85 1 39 79
M  V30 86 1 40 41
M  V30 87 1 40 80
M  V30 88 1 40 81
M  V30 89 1 41 82
M  V30 END BOND
M  V30 END CTAB
M  END
> <s_m_entry_id>
1265

> <s_m_entry_name>
result.7225

> <s_m_Source_Path>
D:\OneDrive - zju.edu.cn\DOC\A-Finished\LCK_VS\Planet\LCK-8617

> <s_m_Source_File>
glide-dock_SP_top1262_2_pv.maegz

> <i_m_Source_File_Index>
1265

> <PLANET_affinity>
8.798

> <i_lp_mmshare_version>
54117

> <i_f3d_flags>
0

> <s_epik_input>
W0NIMl0xW0NIMl1PW0NIMl1bQ0gyXU4xW0NIMl1bQ0gyXVtDSDJdW05IXWMobjIpbihbQ0gyXWMzbmMoW0NIM10pW2NIXVtjSF1jM1tPSF0pYyhjMjQpW2NIXWMoW2NIXVtjSF00KVtDSDJdW05IXWM1W2NIXWMoW0NIM10pW2NIXVtjSF1jNVtDSDJdW0NIMl1bQ0gyXVtPSF0=

> <s_epik_cmdline>
J2VwaWtfcHl0aG9uJywgJy1waCcsICc3LjAnLCAnLXRuJywgJzgnLCAnLW1hJywgJzUwMCcsICctaW1hZScsICc8aW5maWxlLm1hZT4nLCAnLW9tYWUnLCAnPG91dGZpbGUubWFlPic=

> <r_epik_Ionization_Penalty>
  0.3721

> <r_epik_Ionization_Penalty_Charging>
  0.3308

> <r_epik_Ionization_Penalty_Neutral>
  0.0413

> <r_epik_State_Penalty>
  0.8298

> <r_epik_Charging_Adjusted_Penalty>
1.16062

> <i_epik_Tot_Q>
2

> <i_epik_Tot_abs_Q>
2

> <s_lp_Force_Field>
S-OPLS

> <r_lp_Energy>
50.1112

> <b_lp_Chiralities_Consistent>
1

> <s_lp_Variant>
OC1=CC=C(C)N=C1CN2C3=CC(CNC4=CC(C)=CC=C4CCCO)=CC=C3N=C2NCCCN5CCOCC5-2

> <s_i_glide_gridfile>
glide-grid_1

> <i_i_glide_lignum>
605

> <i_i_glide_rotatable_bonds>
15

> <r_i_docking_score>
-7.37429377667115

> <r_i_glide_ligand_efficiency>
-0.179860823821248

> <r_i_glide_ligand_efficiency_sa>
-0.620199192802149

> <r_i_glide_ligand_efficiency_ln>
-1.56448096524537

> <r_i_glide_gscore>
-8.20409377667115

> <r_i_glide_lipo>
-3.53906744654304

> <r_i_glide_hbond>
-0.531923656790613

> <r_i_glide_metal>
0

> <r_i_glide_rewards>
-0.854997767747824

> <r_i_glide_evdw>
-45.3237762451172

> <r_i_glide_ecoul>
-11.400463104248

> <r_i_glide_erotb>
0.713221069946478

> <r_i_glide_esite>
-0.0150676976430855

> <r_i_glide_emodel>
-92.1984466600642

> <r_i_glide_energy>
-56.7242393493652

> <r_i_glide_einternal>
10.0798625946045

> <i_i_glide_confnum>
788

> <i_i_glide_posenum>
331

> <r_i_glide_eff_state_penalty>
0.8298

> <r_lp_tautomer_probability>
0.43658

> <s_m_subgroup_title>
glide-dock_SP_top1262_2_pv

> <s_m_subgroupid>
glide-dock_SP_top1262_2_pv

> <b_m_subgroup_collapsed>
0

$$$$
O=C(C1=NN(C2CCN(C(CC(C)(C#N)C)=O)CC2)C3=C1C=C(F)C=C3)NC4=CC=C(NC(C5=C6C=CC(OC...
                    3D
 Schrodinger Suite 2021-3.
  0  0  0     0  0            999 V3000
M  V30 BEGIN CTAB
M  V30 COUNTS 80 85 0 0 0
M  V30 BEGIN ATOM
M  V30 1 N  33.6830 26.6441 82.8561 0
M  V30 2 C  34.5145 27.3422 83.2594 0
M  V30 3 C  35.5797 28.2257 83.7773 0
M  V30 4 C  35.7863 27.8845 85.2694 0
M  V30 5 C  36.8872 27.9208 83.0116 0
M  V30 6 C  35.2212 29.7393 83.6680 0
M  V30 7 C  34.8729 30.3030 82.2718 0
M  V30 8 O  34.2706 29.5560 81.4972 0
M  V30 9 N  35.2197 31.5800 81.9349 0
M  V30 10 C  35.9406 32.4937 82.8575 0
M  V30 11 C  35.2929 33.8924 82.7877 0
M  V30 12 C  35.0525 32.0251 80.5297 0
M  V30 13 C  34.3446 33.3930 80.5188 0
M  V30 14 C  35.1273 34.4257 81.3503 0
M  V30 15 N  34.4029 35.7077 81.3911 0
M  V30 16 N  33.1618 35.7776 81.9118 0
M  V30 17 C  32.7698 37.0354 81.9370 0
M  V30 18 C  33.8165 37.8554 81.3940 0
M  V30 19 C  34.8641 36.9633 81.0401 0
M  V30 20 C  33.9920 39.2317 81.1749 0
M  V30 21 C  35.1893 39.6821 80.6266 0
M  V30 22 F  35.3724 41.0081 80.4362 0
M  V30 23 C  36.1998 38.7890 80.2804 0
M  V30 24 C  36.0670 37.4125 80.4770 0
M  V30 25 C  31.5196 37.4648 82.5120 0
M  V30 26 O  31.3643 38.6403 82.8373 0
M  V30 27 N  30.5802 36.5003 82.6113 0
M  V30 28 C  29.2545 36.6184 83.0527 0
M  V30 29 C  28.7806 37.6555 83.8701 0
M  V30 30 C  27.4363 37.7139 84.2260 0
M  V30 31 C  26.5414 36.7304 83.7763 0
M  V30 32 C  27.0234 35.6782 82.9824 0
M  V30 33 Cl 25.9874 34.3993 82.4446 0
M  V30 34 C  28.3720 35.6246 82.6352 0
M  V30 35 N  25.1679 36.7344 84.0641 0
M  V30 36 C  24.4420 37.5125 84.8885 0
M  V30 37 O  24.8830 38.3511 85.6701 0
M  V30 38 C  23.0264 37.3301 84.7318 0
M  V30 39 C  22.3788 36.2681 84.0699 0
M  V30 40 N  21.0726 36.3566 84.0439 0
M  V30 41 N  20.7900 37.4613 84.7435 0
M  V30 42 C  21.9409 38.1192 85.2090 0
M  V30 43 C  19.5197 37.8943 84.9769 0
M  V30 44 C  19.3267 39.0586 85.7221 0
M  V30 45 C  20.4433 39.7594 86.1847 0
M  V30 46 C  21.7474 39.3046 85.9451 0
M  V30 47 O  18.0831 39.5559 86.0328 0
M  V30 48 C  16.9315 38.7911 85.6593 0
M  V30 49 H  36.5820 28.4839 85.7146 0
M  V30 50 H  34.8840 28.0721 85.8526 0
M  V30 51 H  36.0516 26.8349 85.4117 0
M  V30 52 H  37.7179 28.5304 83.3723 0
M  V30 53 H  37.1780 26.8748 83.1183 0
M  V30 54 H  36.7820 28.1145 81.9429 0
M  V30 55 H  34.3561 29.9535 84.2958 0
M  V30 56 H  36.0595 30.2713 84.1107 0
M  V30 57 H  35.8340 32.2273 83.9099 0
M  V30 58 H  36.9926 32.5469 82.5690 0
M  V30 59 H  34.3540 33.9108 83.3452 0
M  V30 60 H  35.9574 34.5594 83.3376 0
M  V30 61 H  36.0452 32.1253 80.0919 0
M  V30 62 H  34.4830 31.3244 79.9167 0
M  V30 63 H  34.3296 33.7197 79.4775 0
M  V30 64 H  33.2960 33.3129 80.8095 0
M  V30 65 H  36.0894 34.6587 80.8931 0
M  V30 66 H  33.2189 39.9380 81.4398 0
M  V30 67 H  37.1131 39.1782 79.8563 0
M  V30 68 H  36.8649 36.7360 80.2064 0
M  V30 69 H  30.8423 35.5967 82.2447 0
M  V30 70 H  29.4362 38.4272 84.2428 0
M  V30 71 H  27.1151 38.5391 84.8414 0
M  V30 72 H  28.7210 34.8084 82.0181 0
M  V30 73 H  24.6441 36.0561 83.5377 0
M  V30 74 H  22.8557 35.4300 83.5788 0
M  V30 75 H  18.7273 37.2888 84.5644 0
M  V30 76 H  20.2887 40.6721 86.7438 0
M  V30 77 H  22.5979 39.8606 86.3116 0
M  V30 78 H  16.0174 39.2349 86.0431 0
M  V30 79 H  16.8342 38.7352 84.5740 0
M  V30 80 H  16.9751 37.7789 86.0638 0
M  V30 END ATOM
M  V30 BEGIN BOND
M  V30 1 3 1 2
M  V30 2 1 2 3
M  V30 3 1 3 4
M  V30 4 1 3 5
M  V30 5 1 3 6
M  V30 6 1 4 49
M  V30 7 1 4 50
M  V30 8 1 4 51
M  V30 9 1 5 52
M  V30 10 1 5 53
M  V30 11 1 5 54
M  V30 12 1 6 7
M  V30 13 1 6 55
M  V30 14 1 6 56
M  V30 15 2 7 8
M  V30 16 1 7 9
M  V30 17 1 9 10
M  V30 18 1 9 12
M  V30 19 1 10 11
M  V30 20 1 10 57
M  V30 21 1 10 58
M  V30 22 1 11 14
M  V30 23 1 11 59
M  V30 24 1 11 60
M  V30 25 1 12 13
M  V30 26 1 12 61
M  V30 27 1 12 62
M  V30 28 1 13 14
M  V30 29 1 13 63
M  V30 30 1 13 64
M  V30 31 1 14 15
M  V30 32 1 14 65
M  V30 33 1 15 16
M  V30 34 1 15 19
M  V30 35 2 16 17
M  V30 36 1 17 18
M  V30 37 1 17 25
M  V30 38 2 18 19
M  V30 39 1 18 20
M  V30 40 1 19 24
M  V30 41 2 20 21
M  V30 42 1 20 66
M  V30 43 1 21 22
M  V30 44 1 21 23
M  V30 45 2 23 24
M  V30 46 1 23 67
M  V30 47 1 24 68
M  V30 48 2 25 26
M  V30 49 1 25 27
M  V30 50 1 27 28
M  V30 51 1 27 69
M  V30 52 2 28 29
M  V30 53 1 28 34
M  V30 54 1 29 30
M  V30 55 1 29 70
M  V30 56 2 30 31
M  V30 57 1 30 71
M  V30 58 1 31 32
M  V30 59 1 31 35
M  V30 60 1 32 33
M  V30 61 2 32 34
M  V30 62 1 34 72
M  V30 63 1 35 36
M  V30 64 1 35 73
M  V30 65 2 36 37
M  V30 66 1 36 38
M  V30 67 1 38 39
M  V30 68 2 38 42
M  V30 69 2 39 40
M  V30 70 1 39 74
M  V30 71 1 40 41
M  V30 72 1 41 42
M  V30 73 1 41 43
M  V30 74 1 42 46
M  V30 75 2 43 44
M  V30 76 1 43 75
M  V30 77 1 44 45
M  V30 78 1 44 47
M  V30 79 2 45 46
M  V30 80 1 45 76
M  V30 81 1 46 77
M  V30 82 1 47 48
M  V30 83 1 48 78
M  V30 84 1 48 79
M  V30 85 1 48 80
M  V30 END BOND
M  V30 END CTAB
M  END
> <s_m_entry_id>
1269

> <s_m_entry_name>
result.832

> <s_m_Source_Path>
D:\OneDrive - zju.edu.cn\DOC\A-Finished\LCK_VS\Planet\LCK-8617

> <s_m_Source_File>
glide-dock_SP_top1262_2_pv.maegz

> <i_m_Source_File_Index>
1269

> <PLANET_affinity>
8.727

> <i_lp_mmshare_version>
54117

> <i_f3d_flags>
0

> <s_epik_input>
TiNDQyhbQ0gzXSkoW0NIM10pW0NIMl1DKD1PKU4xW0NIMl1bQ0gyXVtDSF0oW0NIMl1bQ0gyXTEpbihjKGMyMylbY0hdW2NIXWMoRilbY0hdMyluYzJDKD1PKVtOSF1jNFtjSF1bY0hdYyhjKENsKVtjSF00KVtOSF1DKD1PKWMoW2NIXW41KWMobjU2KVtjSF1bY0hdYyhbY0hdNilPW0NIM10=

> <s_epik_cmdline>
J2VwaWtfcHl0aG9uJywgJy1waCcsICc3LjAnLCAnLXRuJywgJzgnLCAnLW1hJywgJzUwMCcsICctaW1hZScsICc8aW5maWxlLm1hZT4nLCAnLW9tYWUnLCAnPG91dGZpbGUubWFlPic=

> <r_epik_Ionization_Penalty>
  0.0000

> <r_epik_Ionization_Penalty_Charging>
  0.0000

> <r_epik_Ionization_Penalty_Neutral>
  0.0000

> <r_epik_State_Penalty>
  0.0000

> <r_epik_Charging_Adjusted_Penalty>
0

> <i_epik_Tot_Q>
0

> <i_epik_Tot_abs_Q>
0

> <s_lp_Force_Field>
S-OPLS

> <r_lp_Energy>
45.7754

> <b_lp_Chiralities_Consistent>
1

> <s_lp_Variant>
O=C(C1=NN(C2CCN(C(CC(C)(C#N)C)=O)CC2)C3=C1C=C(F)C=C3)NC4=CC=C(NC(C5=C6C=CC(OC...-1

> <s_i_glide_gridfile>
glide-grid_1

> <i_i_glide_lignum>
650

> <i_i_glide_rotatable_bonds>
11

> <r_i_docking_score>
-7.36954099075384

> <r_i_glide_ligand_efficiency>
-0.153532103974038

> <r_i_glide_ligand_efficiency_sa>
-0.557972694864132

> <r_i_glide_ligand_efficiency_ln>
-1.51287967264162

> <r_i_glide_gscore>
-7.36954099075384

> <r_i_glide_lipo>
-2.37440525994871

> <r_i_glide_hbond>
-0.408392711000663

> <r_i_glide_metal>
0

> <r_i_glide_rewards>
-0.725912745697418

> <r_i_glide_evdw>
-50.5458335876465

> <r_i_glide_ecoul>
-10.1950340270996

> <r_i_glide_erotb>
0.264052810695134

> <r_i_glide_esite>
-0.0683363013549133

> <r_i_glide_emodel>
-87.1848187802727

> <r_i_glide_energy>
-60.7408676147461

> <r_i_glide_einternal>
6.83308362960815

> <i_i_glide_confnum>
14

> <i_i_glide_posenum>
74

> <r_i_glide_eff_state_penalty>
0

> <r_lp_tautomer_probability>
1

> <s_m_subgroup_title>
glide-dock_SP_top1262_2_pv

> <s_m_subgroupid>
glide-dock_SP_top1262_2_pv

> <b_m_subgroup_collapsed>
0

$$$$
FC(C=CC1=C2C=CN1)=C2C3=NC4=C(SC(CN5CCN(CC6CC6)CC5)=C4)C(N7CCOCC7)=N3
                    3D
 Schrodinger Suite 2021-3.
  0  0  0     0  0            999 V3000
M  V30 BEGIN CTAB
M  V30 COUNTS 68 74 0 0 0
M  V30 BEGIN ATOM
M  V30 1 N  18.8830 40.5728 87.6434 0
M  V30 2 C  19.9407 41.4364 87.7734 0
M  V30 3 C  21.1023 40.7509 87.5150 0
M  V30 4 C  20.7619 39.3648 87.3318 0
M  V30 5 C  19.3402 39.2867 87.4511 0
M  V30 6 C  21.5011 38.1869 87.0854 0
M  V30 7 C  20.7950 36.9704 87.0754 0
M  V30 8 F  21.4505 35.7956 86.9202 0
M  V30 9 C  19.4139 36.9249 87.2406 0
M  V30 10 C  18.6471 38.0767 87.3914 0
M  V30 11 C  22.9683 38.2494 86.8281 0
M  V30 12 N  23.7075 39.1158 87.5645 0
M  V30 13 N  23.4306 37.4660 85.8306 0
M  V30 14 C  24.7389 37.5431 85.4770 0
M  V30 15 N  25.1551 36.7098 84.4255 0
M  V30 16 C  24.1738 35.8185 83.7531 0
M  V30 17 C  24.7558 34.7845 82.7669 0
M  V30 18 O  25.6825 35.3982 81.9068 0
M  V30 19 C  26.7546 35.9856 82.6125 0
M  V30 20 C  26.1841 37.1378 83.4534 0
M  V30 21 C  25.5817 38.4125 86.2134 0
M  V30 22 C  25.0029 39.1797 87.2599 0
M  V30 23 S  27.3047 38.7567 86.1433 0
M  V30 24 C  27.2217 39.9177 87.4527 0
M  V30 25 C  25.9323 40.0069 87.9386 0
M  V30 26 C  28.4770 40.6334 87.9162 0
M  V30 27 N  28.6093 42.0067 87.4119 0 CFG=1
M  V30 28 C  29.8220 42.6036 87.9928 0
M  V30 29 C  29.9755 44.0858 87.5852 0
M  V30 30 N  30.0520 44.1756 86.0432 0 CHG=1
M  V30 31 C  28.7869 43.5137 85.4471 0
M  V30 32 C  28.7143 42.0529 85.9428 0
M  V30 33 C  30.1932 45.6252 85.5258 0
M  V30 34 C  31.5909 46.1785 85.8518 0
M  V30 35 C  31.8104 47.6702 85.8066 0
M  V30 36 C  31.8540 46.9337 87.1342 0
M  V30 37 H  17.9013 40.8625 87.7470 0
M  V30 38 H  19.7693 42.4710 88.0422 0
M  V30 39 H  22.0869 41.1955 87.5042 0
M  V30 40 H  18.9236 35.9629 87.2455 0
M  V30 41 H  17.5732 38.0307 87.5032 0
M  V30 42 H  23.6234 35.2641 84.5121 0
M  V30 43 H  23.4262 36.4242 83.2428 0
M  V30 44 H  23.9460 34.3585 82.1745 0
M  V30 45 H  25.2650 33.9563 83.2443 0
M  V30 46 H  27.4886 36.3554 81.8970 0
M  V30 47 H  27.2721 35.2551 83.2391 0
M  V30 48 H  25.7499 37.8994 82.8038 0
M  V30 49 H  27.0440 37.5926 83.9240 0
M  V30 50 H  25.6483 40.6515 88.7566 0
M  V30 51 H  29.3626 40.0570 87.6433 0
M  V30 52 H  28.4636 40.6730 89.0045 0
M  V30 53 H  30.7101 42.0383 87.7012 0
M  V30 54 H  29.7689 42.5479 89.0812 0
M  V30 55 H  30.9044 44.5010 87.9735 0
M  V30 56 H  29.1349 44.7001 87.9132 0
M  V30 57 H  27.9201 44.1016 85.7563 0
M  V30 58 H  28.8808 43.5604 84.3609 0
M  V30 59 H  27.8344 41.5915 85.4927 0
M  V30 60 H  29.5773 41.4829 85.5918 0
M  V30 61 H  29.3712 46.2064 85.9480 0
M  V30 62 H  30.0755 45.5573 84.4424 0
M  V30 63 H  32.3868 45.5661 85.4187 0
M  V30 64 H  30.9612 48.3190 85.5803 0
M  V30 65 H  32.7398 48.0398 85.3683 0
M  V30 66 H  32.8153 46.7871 87.6316 0
M  V30 67 H  31.0394 47.0803 87.8452 0
M  V30 68 H  30.8490 43.6472 85.7105 0
M  V30 END ATOM
M  V30 BEGIN BOND
M  V30 1 1 1 2
M  V30 2 1 1 5
M  V30 3 1 1 37
M  V30 4 2 2 3
M  V30 5 1 2 38
M  V30 6 1 3 4
M  V30 7 1 3 39
M  V30 8 2 4 5
M  V30 9 1 4 6
M  V30 10 1 5 10
M  V30 11 2 6 7
M  V30 12 1 6 11
M  V30 13 1 7 8
M  V30 14 1 7 9
M  V30 15 2 9 10
M  V30 16 1 9 40
M  V30 17 1 10 41
M  V30 18 2 11 12
M  V30 19 1 11 13
M  V30 20 1 12 22
M  V30 21 2 13 14
M  V30 22 1 14 15
M  V30 23 1 14 21
M  V30 24 1 15 16
M  V30 25 1 15 20
M  V30 26 1 16 17
M  V30 27 1 16 42
M  V30 28 1 16 43
M  V30 29 1 17 18
M  V30 30 1 17 44
M  V30 31 1 17 45
M  V30 32 1 18 19
M  V30 33 1 19 20
M  V30 34 1 19 46
M  V30 35 1 19 47
M  V30 36 1 20 48
M  V30 37 1 20 49
M  V30 38 2 21 22
M  V30 39 1 21 23
M  V30 40 1 22 25
M  V30 41 1 23 24
M  V30 42 2 24 25
M  V30 43 1 24 26
M  V30 44 1 25 50
M  V30 45 1 26 27
M  V30 46 1 26 51
M  V30 47 1 26 52
M  V30 48 1 27 28
M  V30 49 1 27 32
M  V30 50 1 28 29
M  V30 51 1 28 53
M  V30 52 1 28 54
M  V30 53 1 29 30
M  V30 54 1 29 55
M  V30 55 1 29 56
M  V30 56 1 30 31
M  V30 57 1 30 33
M  V30 58 1 30 68
M  V30 59 1 31 32
M  V30 60 1 31 57
M  V30 61 1 31 58
M  V30 62 1 32 59
M  V30 63 1 32 60
M  V30 64 1 33 34
M  V30 65 1 33 61
M  V30 66 1 33 62
M  V30 67 1 34 35
M  V30 68 1 34 36
M  V30 69 1 34 63
M  V30 70 1 35 36
M  V30 71 1 35 64
M  V30 72 1 35 65
M  V30 73 1 36 66
M  V30 74 1 36 67
M  V30 END BOND
M  V30 END CTAB
M  END
> <s_m_entry_id>
1275

> <s_m_entry_name>
result.2011

> <s_m_Source_Path>
D:\OneDrive - zju.edu.cn\DOC\A-Finished\LCK_VS\Planet\LCK-8617

> <s_m_Source_File>
glide-dock_SP_top1262_2_pv.maegz

> <i_m_Source_File_Index>
1275

> <PLANET_affinity>
8.11

> <i_lp_mmshare_version>
54117

> <i_f3d_flags>
0

> <s_epik_input>
W2NIXTFbY0hdW25IXWMoYzEyKVtjSF1bY0hdYyhGKWMyLWMobmMzTjRbQ0gyXVtDSDJdT1tDSDJdW0NIMl00KW5jKGMzNSlbY0hdYyhzNSlbQ0gyXU42W0NIMl1bQ0gyXU4oW0NIMl1bQ0gyXTYpW0NIMl1bQ0hdN1tDSDJdW0NIMl03

> <s_epik_cmdline>
J2VwaWtfcHl0aG9uJywgJy1waCcsICc3LjAnLCAnLXRuJywgJzgnLCAnLW1hJywgJzUwMCcsICctaW1hZScsICc8aW5maWxlLm1hZT4nLCAnLW9tYWUnLCAnPG91dGZpbGUubWFlPic=

> <r_epik_Ionization_Penalty>
  0.0087

> <r_epik_Ionization_Penalty_Charging>
  0.0005

> <r_epik_Ionization_Penalty_Neutral>
  0.0082

> <r_epik_State_Penalty>
  0.0312

> <r_epik_Charging_Adjusted_Penalty>
0.0316972

> <i_epik_Tot_Q>
1

> <i_epik_Tot_abs_Q>
1

> <s_lp_Force_Field>
S-OPLS

> <r_lp_Energy>
74.2258

> <b_lp_Chiralities_Consistent>
1

> <s_lp_Variant>
FC(C=CC1=C2C=CN1)=C2C3=NC4=C(SC(CN5CCN(CC6CC6)CC5)=C4)C(N7CCOCC7)=N3-1

> <s_i_glide_gridfile>
glide-grid_1

> <i_i_glide_lignum>
1197

> <i_i_glide_rotatable_bonds>
6

> <r_i_docking_score>
-7.36811174306751

> <r_i_glide_ligand_efficiency>
-0.204669770640764

> <r_i_glide_ligand_efficiency_sa>
-0.6758046918965

> <r_i_glide_ligand_efficiency_ln>
-1.60752291896264

> <r_i_glide_gscore>
-7.39931174306751

> <r_i_glide_lipo>
-2.46307776547312

> <r_i_glide_hbond>
-0.456

> <r_i_glide_metal>
0

> <r_i_glide_rewards>
-1.69684743888312

> <r_i_glide_evdw>
-33.1374015808105

> <r_i_glide_ecoul>
-9.59145450592041

> <r_i_glide_erotb>
0.476545287623143

> <r_i_glide_esite>
-0.164343571405823

> <r_i_glide_emodel>
-68.278680525898

> <r_i_glide_energy>
-42.728856086731

> <r_i_glide_einternal>
5.40829515457153

> <i_i_glide_confnum>
208

> <i_i_glide_posenum>
236

> <r_i_glide_eff_state_penalty>
0.0312

> <s_m_subgroup_title>
glide-dock_SP_top1262_2_pv

> <s_m_subgroupid>
glide-dock_SP_top1262_2_pv

> <b_m_subgroup_collapsed>
0

$$$$
ClC(C(C1=CC2=C(CN([C@H](C)C(N[C@H](CO)C3=CC(F)=CC(OC)=C3)=O)C2=O)C=C1)=N4)=CN...
                    3D
 Schrodinger Suite 2021-3.
  0  0  0     0  0            999 V3000
M  V30 BEGIN CTAB
M  V30 COUNTS 72 76 0 0 0
M  V30 BEGIN ATOM
M  V30 1 C  19.5594 38.0547 85.4719 0
M  V30 2 C  18.0962 38.3414 85.8666 0
M  V30 3 O  17.5389 37.1902 86.5024 0
M  V30 4 C  18.1875 36.8351 87.7221 0
M  V30 5 C  19.6564 36.4740 87.4424 0
M  V30 6 C  20.3812 37.6158 86.7052 0
M  V30 7 N  21.6904 37.1248 86.2716 0
M  V30 8 C  22.7456 37.9884 85.9390 0
M  V30 9 N  22.6655 39.3107 86.2443 0
M  V30 10 C  23.7044 40.0904 85.8516 0
M  V30 11 N  23.7906 37.4036 85.2985 0
M  V30 12 C  24.8316 38.1983 84.9139 0
M  V30 13 C  24.8123 39.5842 85.1676 0
M  V30 14 Cl 26.0442 40.6752 84.6298 0
M  V30 15 C  25.9289 37.4969 84.1801 0
M  V30 16 C  27.2835 37.7324 84.4742 0
M  V30 17 C  25.6255 36.5726 83.1652 0
M  V30 18 C  26.6312 35.9313 82.4454 0
M  V30 19 C  27.9652 36.1925 82.7466 0
M  V30 20 C  28.2828 37.0774 83.7535 0
M  V30 21 C  29.2293 35.6792 82.1342 0
M  V30 22 N  30.2634 36.3018 82.9595 0
M  V30 23 C  29.7679 37.1599 83.8974 0
M  V30 24 O  30.3994 37.8509 84.6921 0
M  V30 25 C  31.6935 36.1056 82.6140 0 CFG=2
M  V30 26 C  32.6267 35.8994 83.8118 0
M  V30 27 C  32.2290 37.2592 81.7262 0
M  V30 28 O  32.0037 38.4352 82.0117 0
M  V30 29 N  32.9822 36.9040 80.6678 0
M  V30 30 C  33.6700 37.8397 79.7575 0 CFG=2
M  V30 31 C  34.3063 37.0948 78.5611 0
M  V30 32 O  34.4832 37.9565 77.4475 0
M  V30 33 C  34.6541 38.7982 80.4437 0
M  V30 34 C  34.6658 40.1567 80.1100 0
M  V30 35 C  35.5159 41.0369 80.7755 0
M  V30 36 F  35.5276 42.3463 80.4436 0
M  V30 37 C  36.3581 40.5673 81.7799 0
M  V30 38 C  36.3612 39.2194 82.1370 0
M  V30 39 C  35.5050 38.3407 81.4566 0
M  V30 40 O  37.2173 38.8448 83.1540 0
M  V30 41 C  37.2159 37.4901 83.5969 0
M  V30 42 H  19.9963 38.9497 85.0244 0
M  V30 43 H  19.5747 37.2797 84.7046 0
M  V30 44 H  18.0257 39.2092 86.5254 0
M  V30 45 H  17.5006 38.5717 84.9826 0
M  V30 46 H  18.1064 37.6534 88.4410 0
M  V30 47 H  17.6830 35.9748 88.1593 0
M  V30 48 H  19.6874 35.5571 86.8525 0
M  V30 49 H  20.1520 36.2553 88.3868 0
M  V30 50 H  20.5177 38.4740 87.3683 0
M  V30 51 H  21.7376 36.1968 85.8778 0
M  V30 52 H  23.6233 41.1444 86.0704 0
M  V30 53 H  27.5514 38.4194 85.2651 0
M  V30 54 H  24.5961 36.3572 82.9201 0
M  V30 55 H  26.3664 35.2411 81.6584 0
M  V30 56 H  29.3506 35.9570 81.0867 0
M  V30 57 H  29.3045 34.5938 82.1895 0
M  V30 58 H  31.7465 35.1852 82.0288 0
M  V30 59 H  33.6255 35.6217 83.4705 0
M  V30 60 H  32.7113 36.8006 84.4211 0
M  V30 61 H  32.2490 35.0889 84.4339 0
M  V30 62 H  32.9565 35.9347 80.3810 0
M  V30 63 H  32.8830 38.4613 79.3383 0
M  V30 64 H  35.2743 36.6757 78.8376 0
M  V30 65 H  33.6868 36.2490 78.2556 0
M  V30 66 H  34.2238 37.4732 76.6481 0
M  V30 67 H  34.0126 40.5374 79.3407 0
M  V30 68 H  37.0104 41.2571 82.2921 0
M  V30 69 H  35.4745 37.2932 81.7137 0
M  V30 70 H  37.9291 37.3745 84.4135 0
M  V30 71 H  36.2350 37.1941 83.9731 0
M  V30 72 H  37.5145 36.8091 82.7985 0
M  V30 END ATOM
M  V30 BEGIN BOND
M  V30 1 1 1 2
M  V30 2 1 1 6
M  V30 3 1 1 42
M  V30 4 1 1 43
M  V30 5 1 2 3
M  V30 6 1 2 44
M  V30 7 1 2 45
M  V30 8 1 3 4
M  V30 9 1 4 5
M  V30 10 1 4 46
M  V30 11 1 4 47
M  V30 12 1 5 6
M  V30 13 1 5 48
M  V30 14 1 5 49
M  V30 15 1 6 7
M  V30 16 1 6 50
M  V30 17 1 7 8
M  V30 18 1 7 51
M  V30 19 2 8 9
M  V30 20 1 8 11
M  V30 21 1 9 10
M  V30 22 2 10 13
M  V30 23 1 10 52
M  V30 24 2 11 12
M  V30 25 1 12 13
M  V30 26 1 12 15
M  V30 27 1 13 14
M  V30 28 2 15 16
M  V30 29 1 15 17
M  V30 30 1 16 20
M  V30 31 1 16 53
M  V30 32 2 17 18
M  V30 33 1 17 54
M  V30 34 1 18 19
M  V30 35 1 18 55
M  V30 36 2 19 20
M  V30 37 1 19 21
M  V30 38 1 20 23
M  V30 39 1 21 22
M  V30 40 1 21 56
M  V30 41 1 21 57
M  V30 42 1 22 23
M  V30 43 1 22 25
M  V30 44 2 23 24
M  V30 45 1 25 26
M  V30 46 1 25 27
M  V30 47 1 25 58
M  V30 48 1 26 59
M  V30 49 1 26 60
M  V30 50 1 26 61
M  V30 51 2 27 28
M  V30 52 1 27 29
M  V30 53 1 29 30
M  V30 54 1 29 62
M  V30 55 1 30 31
M  V30 56 1 30 33
M  V30 57 1 30 63
M  V30 58 1 31 32
M  V30 59 1 31 64
M  V30 60 1 31 65
M  V30 61 1 32 66
M  V30 62 2 33 34
M  V30 63 1 33 39
M  V30 64 1 34 35
M  V30 65 1 34 67
M  V30 66 1 35 36
M  V30 67 2 35 37
M  V30 68 1 37 38
M  V30 69 1 37 68
M  V30 70 2 38 39
M  V30 71 1 38 40
M  V30 72 1 39 69
M  V30 73 1 40 41
M  V30 74 1 41 70
M  V30 75 1 41 71
M  V30 76 1 41 72
M  V30 END BOND
M  V30 END CTAB
M  END
> <s_m_entry_id>
1281

> <s_m_entry_name>
result.477

> <s_m_Source_Path>
D:\OneDrive - zju.edu.cn\DOC\A-Finished\LCK_VS\Planet\LCK-8617

> <s_m_Source_File>
glide-dock_SP_top1262_2_pv.maegz

> <i_m_Source_File_Index>
1281

> <PLANET_affinity>
8.021

> <i_lp_mmshare_version>
54117

> <i_f3d_flags>
0

> <s_epik_input>
W0NIMl0xW0NIMl1PW0NIMl1bQ0gyXVtDSF0xW05IXWMybltjSF1jKENsKWMobjIpLWMoW2NIXVtjSF0zKVtjSF1jKGMzNClDKD1PKU4oW0NIMl00KVtDQEhdKFtDSDNdKUMoPU8pW05IXVtDQEhdKFtDSDJdW09IXSljNVtjSF1jKEYpW2NIXWMoW2NIXTUpT1tDSDNd

> <s_epik_cmdline>
J2VwaWtfcHl0aG9uJywgJy1waCcsICc3LjAnLCAnLXRuJywgJzgnLCAnLW1hJywgJzUwMCcsICctaW1hZScsICc8aW5maWxlLm1hZT4nLCAnLW9tYWUnLCAnPG91dGZpbGUubWFlPic=

> <r_epik_Ionization_Penalty>
  0.0000

> <r_epik_Ionization_Penalty_Charging>
  0.0000

> <r_epik_Ionization_Penalty_Neutral>
  0.0000

> <r_epik_State_Penalty>
  0.0000

> <r_epik_Charging_Adjusted_Penalty>
0

> <i_epik_Tot_Q>
0

> <i_epik_Tot_abs_Q>
0

> <s_lp_Force_Field>
S-OPLS

> <r_lp_Energy>
53.6358

> <b_lp_Chiralities_Consistent>
1

> <s_lp_Variant>
ClC(C(C1=CC2=C(CN([C@H](C)C(N[C@H](CO)C3=CC(F)=CC(OC)=C3)=O)C2=O)C=C1)=N4)=CN...-1

> <s_i_glide_gridfile>
glide-grid_1

> <i_i_glide_lignum>
1278

> <i_i_glide_rotatable_bonds>
11

> <r_i_docking_score>
-7.36575777472691

> <r_i_glide_ligand_efficiency>
-0.179652628651876

> <r_i_glide_ligand_efficiency_sa>
-0.619481290630645

> <r_i_glide_ligand_efficiency_ln>
-1.56267002402638

> <r_i_glide_gscore>
-7.36575777472691

> <r_i_glide_lipo>
-3.11885296709145

> <r_i_glide_hbond>
-0.32

> <r_i_glide_metal>
0

> <r_i_glide_rewards>
-1.06884691405807

> <r_i_glide_evdw>
-47.532154083252

> <r_i_glide_ecoul>
-6.16181802749634

> <r_i_glide_erotb>
0.448859714086879

> <r_i_glide_esite>
-0.00603719937721646

> <r_i_glide_emodel>
-74.6303258930729

> <r_i_glide_energy>
-53.6939721107483

> <r_i_glide_einternal>
7.03316402435303

> <i_i_glide_confnum>
311

> <i_i_glide_posenum>
90

> <r_i_glide_eff_state_penalty>
0

> <r_lp_tautomer_probability>
1

> <s_m_subgroup_title>
glide-dock_SP_top1262_2_pv

> <s_m_subgroupid>
glide-dock_SP_top1262_2_pv

> <b_m_subgroup_collapsed>
0

$$$$
O=C1CNC2=NC=C(C3=CC=C(C(C)(O)C)N=C3)N=C2N1[C@H]4CC[C@H](OC)CC4
                    3D
 Schrodinger Suite 2021-3.
  0  0  0     0  0            999 V3000
M  V30 BEGIN CTAB
M  V30 COUNTS 56 59 0 0 0
M  V30 BEGIN ATOM
M  V30 1 C  24.0797 42.4131 87.5322 0
M  V30 2 O  25.1341 41.5358 87.9117 0
M  V30 3 C  25.4363 40.5011 86.9805 0 CFG=2
M  V30 4 C  26.3303 39.4643 87.6803 0
M  V30 5 C  26.5923 38.2503 86.7676 0
M  V30 6 C  26.1691 41.0190 85.7255 0
M  V30 7 C  26.4368 39.8778 84.7224 0
M  V30 8 C  27.1274 38.6306 85.3503 0 CFG=2
M  V30 9 N  27.3459 37.4977 84.3972 0
M  V30 10 C  28.6365 37.2101 84.0387 0
M  V30 11 O  29.6443 37.6679 84.5792 0
M  V30 12 C  28.7534 36.1729 82.8821 0
M  V30 13 N  27.6824 35.1637 82.8432 0
M  V30 14 C  26.2272 36.7221 83.9770 0
M  V30 15 C  26.3885 35.5995 83.1535 0
M  V30 16 N  24.9805 37.0613 84.4043 0
M  V30 17 C  23.9158 36.2962 84.0433 0
M  V30 18 C  24.1033 35.2017 83.1870 0
M  V30 19 N  25.3387 34.8391 82.7518 0
M  V30 20 C  22.5988 36.6804 84.6311 0
M  V30 21 C  22.5092 37.3882 85.8402 0
M  V30 22 C  21.2728 37.7921 86.3362 0
M  V30 23 C  20.1174 37.4860 85.6089 0
M  V30 24 C  18.7481 38.0245 86.0724 0
M  V30 25 C  18.7964 39.5559 86.2240 0
M  V30 26 O  17.7024 37.8109 85.1408 0
M  V30 27 C  18.2909 37.3377 87.3759 0
M  V30 28 N  20.1733 36.7592 84.4561 0
M  V30 29 C  21.3907 36.3718 83.9958 0
M  V30 30 H  23.8828 43.1112 88.3454 0
M  V30 31 H  24.3330 43.0035 86.6516 0
M  V30 32 H  23.1554 41.8681 87.3345 0
M  V30 33 H  24.5050 40.0126 86.6822 0
M  V30 34 H  27.2908 39.9143 87.9381 0
M  V30 35 H  25.8643 39.1294 88.6080 0
M  V30 36 H  25.6555 37.7045 86.7024 0
M  V30 37 H  27.2830 37.5728 87.2595 0
M  V30 38 H  27.1281 41.4535 86.0126 0
M  V30 39 H  25.5924 41.7951 85.2229 0
M  V30 40 H  27.0460 40.2620 83.9028 0
M  V30 41 H  25.4760 39.5979 84.2913 0
M  V30 42 H  28.1027 39.0486 85.6086 0
M  V30 43 H  29.7138 35.6614 82.9607 0
M  V30 44 H  28.7787 36.7276 81.9488 0
M  V30 45 H  27.8050 34.4409 82.1462 0
M  V30 46 H  23.2829 34.5671 82.8812 0
M  V30 47 H  23.3968 37.6483 86.3958 0
M  V30 48 H  21.2226 38.3593 87.2533 0
M  V30 49 H  19.4512 39.8706 87.0360 0
M  V30 50 H  17.8096 39.9565 86.4434 0
M  V30 51 H  19.1506 40.0361 85.3108 0
M  V30 52 H  16.8834 38.1120 85.5420 0
M  V30 53 H  19.0206 37.4741 88.1733 0
M  V30 54 H  17.3449 37.7448 87.7384 0
M  V30 55 H  18.1554 36.2634 87.2440 0
M  V30 56 H  21.3807 35.8224 83.0660 0
M  V30 END ATOM
M  V30 BEGIN BOND
M  V30 1 1 1 2
M  V30 2 1 1 30
M  V30 3 1 1 31
M  V30 4 1 1 32
M  V30 5 1 2 3
M  V30 6 1 3 4
M  V30 7 1 3 6
M  V30 8 1 3 33
M  V30 9 1 4 5
M  V30 10 1 4 34
M  V30 11 1 4 35
M  V30 12 1 5 8
M  V30 13 1 5 36
M  V30 14 1 5 37
M  V30 15 1 6 7
M  V30 16 1 6 38
M  V30 17 1 6 39
M  V30 18 1 7 8
M  V30 19 1 7 40
M  V30 20 1 7 41
M  V30 21 1 8 9
M  V30 22 1 8 42
M  V30 23 1 9 10
M  V30 24 1 9 14
M  V30 25 2 10 11
M  V30 26 1 10 12
M  V30 27 1 12 13
M  V30 28 1 12 43
M  V30 29 1 12 44
M  V30 30 1 13 15
M  V30 31 1 13 45
M  V30 32 2 14 15
M  V30 33 1 14 16
M  V30 34 1 15 19
M  V30 35 2 16 17
M  V30 36 1 17 18
M  V30 37 1 17 20
M  V30 38 2 18 19
M  V30 39 1 18 46
M  V30 40 2 20 21
M  V30 41 1 20 29
M  V30 42 1 21 22
M  V30 43 1 21 47
M  V30 44 2 22 23
M  V30 45 1 22 48
M  V30 46 1 23 24
M  V30 47 1 23 28
M  V30 48 1 24 25
M  V30 49 1 24 26
M  V30 50 1 24 27
M  V30 51 1 25 49
M  V30 52 1 25 50
M  V30 53 1 25 51
M  V30 54 1 26 52
M  V30 55 1 27 53
M  V30 56 1 27 54
M  V30 57 1 27 55
M  V30 58 2 28 29
M  V30 59 1 29 56
M  V30 END BOND
M  V30 END CTAB
M  END
> <s_m_entry_id>
1284

> <s_m_entry_name>
result.6488

> <s_m_Source_Path>
D:\OneDrive - zju.edu.cn\DOC\A-Finished\LCK_VS\Planet\LCK-8617

> <s_m_Source_File>
glide-dock_SP_top1262_2_pv.maegz

> <i_m_Source_File_Index>
1284

> <PLANET_affinity>
7.927

> <i_lp_mmshare_version>
54117

> <i_f3d_flags>
0

> <s_epik_input>
W0NIM11PW0NAQEhdMVtDSDJdW0NIMl1bQ0BIXShbQ0gyXVtDSDJdMSlOMkMoPU8pW0NIMl1bTkhdYyhjMjMpbltjSF1jKG4zKS1jNFtjSF1bY0hdYyhDKFtDSDNdKShbT0hdKVtDSDNdKW5bY0hdNA==

> <s_epik_cmdline>
J2VwaWtfcHl0aG9uJywgJy1waCcsICc3LjAnLCAnLXRuJywgJzgnLCAnLW1hJywgJzUwMCcsICctaW1hZScsICc8aW5maWxlLm1hZT4nLCAnLW9tYWUnLCAnPG91dGZpbGUubWFlPic=

> <r_epik_Ionization_Penalty>
  0.0016

> <r_epik_Ionization_Penalty_Charging>
  0.0000

> <r_epik_Ionization_Penalty_Neutral>
  0.0016

> <r_epik_State_Penalty>
  0.0010

> <r_epik_Charging_Adjusted_Penalty>
0.00101361

> <i_epik_Tot_Q>
0

> <i_epik_Tot_abs_Q>
0

> <s_lp_Force_Field>
S-OPLS

> <r_lp_Energy>
59.981

> <b_lp_Chiralities_Consistent>
1

> <s_lp_Variant>
O=C1CNC2=NC=C(C3=CC=C(C(C)(O)C)N=C3)N=C2N1[C@H]4CC[C@H](OC)CC4-1

> <s_i_glide_gridfile>
glide-grid_1

> <i_i_glide_lignum>
1375

> <i_i_glide_rotatable_bonds>
5

> <r_i_docking_score>
-7.36244191802744

> <r_i_glide_ligand_efficiency>
-0.253877307518187

> <r_i_glide_ligand_efficiency_sa>
-0.77999152267246

> <r_i_glide_ligand_efficiency_ln>
-1.68581250380976

> <r_i_glide_gscore>
-7.36344191802744

> <r_i_glide_lipo>
-2.75310181776018

> <r_i_glide_hbond>
-0.497684551062801

> <r_i_glide_metal>
0

> <r_i_glide_rewards>
-1.97065132397634

> <r_i_glide_evdw>
-37.6195373535156

> <r_i_glide_ecoul>
-4.01549959182739

> <r_i_glide_erotb>
0.371718824745899

> <r_i_glide_esite>
-0.0304212435241176

> <r_i_glide_emodel>
-58.0010743787969

> <r_i_glide_energy>
-41.635036945343

> <r_i_glide_einternal>
4.59639596939087

> <i_i_glide_confnum>
33

> <i_i_glide_posenum>
127

> <r_i_glide_eff_state_penalty>
0.001

> <r_lp_tautomer_probability>
1

> <s_m_subgroup_title>
glide-dock_SP_top1262_2_pv

> <s_m_subgroupid>
glide-dock_SP_top1262_2_pv

> <b_m_subgroup_collapsed>
0

$$$$
O=C(N(CCCN)CCCCNCCCNC(CCC1=CC=C(O)C(O)=C1)=O)CCC2=CC=C(O)C(O)=C2
                    3D
 Schrodinger Suite 2021-3.
  0  0  0     0  0            999 V3000
M  V30 BEGIN CTAB
M  V30 COUNTS 82 83 0 0 0
M  V30 BEGIN ATOM
M  V30 1 O  26.5309 34.7567 82.0439 0
M  V30 2 C  26.3909 35.6795 83.0373 0
M  V30 3 C  25.1671 35.7181 83.6855 0
M  V30 4 C  27.4175 36.5591 83.4151 0
M  V30 5 O  28.6623 36.5032 82.8421 0
M  V30 6 C  27.1925 37.4809 84.4386 0
M  V30 7 C  25.9611 37.5116 85.0967 0
M  V30 8 C  24.9495 36.6222 84.7195 0
M  V30 9 C  23.5963 36.6321 85.3984 0
M  V30 10 C  22.8888 37.9973 85.2694 0
M  V30 11 C  21.3616 37.9263 85.1146 0
M  V30 12 O  20.7934 36.8344 85.2369 0
M  V30 13 N  20.6685 39.0682 84.8603 0
M  V30 14 C  19.2023 39.0428 84.8460 0
M  V30 15 C  18.5654 38.7719 86.2192 0
M  V30 16 C  17.1499 38.2131 86.0631 0
M  V30 17 N  16.8392 37.2937 87.2438 0 CHG=1
M  V30 18 C  21.2782 40.3841 84.6071 0
M  V30 19 C  21.6638 41.1584 85.8785 0
M  V30 20 C  22.3516 42.4972 85.5616 0
M  V30 21 C  22.8181 43.2084 86.8389 0
M  V30 22 N  22.8829 44.7215 86.5814 0 CHG=1
M  V30 23 C  23.4545 45.5777 87.7304 0
M  V30 24 C  22.7383 45.3414 89.0811 0
M  V30 25 C  21.2082 45.5199 89.0553 0
M  V30 26 N  20.6121 45.5333 90.3875 0
M  V30 27 C  20.1862 44.4521 91.0588 0
M  V30 28 O  20.2416 43.3013 90.6166 0
M  V30 29 C  19.6123 44.7307 92.4566 0
M  V30 30 C  19.7365 43.5676 93.4744 0
M  V30 31 C  21.1255 42.9404 93.6228 0
M  V30 32 C  22.2891 43.7195 93.6316 0
M  V30 33 C  23.5397 43.1131 93.7596 0
M  V30 34 C  23.6391 41.7291 93.8974 0
M  V30 35 O  24.8807 41.1698 94.0434 0
M  V30 36 C  22.4779 40.9441 93.8995 0
M  V30 37 O  22.5241 39.5802 94.0324 0
M  V30 38 C  21.2347 41.5563 93.7560 0
M  V30 39 H  27.0914 35.0499 81.3101 0
M  V30 40 H  24.3854 35.0354 83.3804 0
M  V30 41 H  28.8438 35.6727 82.3897 0
M  V30 42 H  27.9815 38.1553 84.7414 0
M  V30 43 H  25.8002 38.2193 85.8960 0
M  V30 44 H  22.9949 35.8163 84.9893 0
M  V30 45 H  23.7388 36.3721 86.4436 0
M  V30 46 H  23.1281 38.5811 86.1546 0
M  V30 47 H  23.2916 38.5340 84.4120 0
M  V30 48 H  18.7852 39.9563 84.4442 0
M  V30 49 H  18.9137 38.2600 84.1442 0
M  V30 50 H  19.1892 38.0931 86.8021 0
M  V30 51 H  18.5338 39.7012 86.7932 0
M  V30 52 H  16.3747 38.9814 86.0438 0
M  V30 53 H  17.0429 37.5565 85.2017 0
M  V30 54 H  15.9185 36.8902 87.1318 0
M  V30 55 H  17.5160 36.5456 87.3100 0
M  V30 56 H  22.1518 40.2816 83.9604 0
M  V30 57 H  20.5938 41.0093 84.0321 0
M  V30 58 H  20.7621 41.3502 86.4633 0
M  V30 59 H  22.3239 40.5637 86.5071 0
M  V30 60 H  23.2186 42.3193 84.9200 0
M  V30 61 H  21.6828 43.1354 84.9808 0
M  V30 62 H  22.1020 43.0828 87.6527 0
M  V30 63 H  23.8130 42.8926 87.1629 0
M  V30 64 H  23.4175 44.8894 85.7363 0
M  V30 65 H  24.5163 45.3305 87.7749 0
M  V30 66 H  23.3463 46.6059 87.3792 0
M  V30 67 H  22.9802 44.3496 89.4645 0
M  V30 68 H  23.1614 46.0386 89.8065 0
M  V30 69 H  20.9465 46.4539 88.5554 0
M  V30 70 H  20.7509 44.7453 88.4436 0
M  V30 71 H  20.4731 46.4402 90.8054 0
M  V30 72 H  20.0923 45.6173 92.8720 0
M  V30 73 H  18.5595 44.9857 92.3328 0
M  V30 74 H  19.4182 43.9184 94.4567 0
M  V30 75 H  19.0106 42.7978 93.2021 0
M  V30 76 H  22.2301 44.7948 93.5357 0
M  V30 77 H  24.4313 43.7221 93.7585 0
M  V30 78 H  24.9260 40.5331 94.7693 0
M  V30 79 H  23.4194 39.2345 94.0794 0
M  V30 80 H  20.3434 40.9480 93.7774 0
M  V30 81 H  21.9356 45.0349 86.3716 0
M  V30 82 H  16.8470 37.8259 88.1083 0
M  V30 END ATOM
M  V30 BEGIN BOND
M  V30 1 1 1 2
M  V30 2 1 1 39
M  V30 3 2 2 3
M  V30 4 1 2 4
M  V30 5 1 3 8
M  V30 6 1 3 40
M  V30 7 1 4 5
M  V30 8 2 4 6
M  V30 9 1 5 41
M  V30 10 1 6 7
M  V30 11 1 6 42
M  V30 12 2 7 8
M  V30 13 1 7 43
M  V30 14 1 8 9
M  V30 15 1 9 10
M  V30 16 1 9 44
M  V30 17 1 9 45
M  V30 18 1 10 11
M  V30 19 1 10 46
M  V30 20 1 10 47
M  V30 21 2 11 12
M  V30 22 1 11 13
M  V30 23 1 13 14
M  V30 24 1 13 18
M  V30 25 1 14 15
M  V30 26 1 14 48
M  V30 27 1 14 49
M  V30 28 1 15 16
M  V30 29 1 15 50
M  V30 30 1 15 51
M  V30 31 1 16 17
M  V30 32 1 16 52
M  V30 33 1 16 53
M  V30 34 1 17 54
M  V30 35 1 17 55
M  V30 36 1 17 82
M  V30 37 1 18 19
M  V30 38 1 18 56
M  V30 39 1 18 57
M  V30 40 1 19 20
M  V30 41 1 19 58
M  V30 42 1 19 59
M  V30 43 1 20 21
M  V30 44 1 20 60
M  V30 45 1 20 61
M  V30 46 1 21 22
M  V30 47 1 21 62
M  V30 48 1 21 63
M  V30 49 1 22 23
M  V30 50 1 22 64
M  V30 51 1 22 81
M  V30 52 1 23 24
M  V30 53 1 23 65
M  V30 54 1 23 66
M  V30 55 1 24 25
M  V30 56 1 24 67
M  V30 57 1 24 68
M  V30 58 1 25 26
M  V30 59 1 25 69
M  V30 60 1 25 70
M  V30 61 1 26 27
M  V30 62 1 26 71
M  V30 63 2 27 28
M  V30 64 1 27 29
M  V30 65 1 29 30
M  V30 66 1 29 72
M  V30 67 1 29 73
M  V30 68 1 30 31
M  V30 69 1 30 74
M  V30 70 1 30 75
M  V30 71 2 31 32
M  V30 72 1 31 38
M  V30 73 1 32 33
M  V30 74 1 32 76
M  V30 75 2 33 34
M  V30 76 1 33 77
M  V30 77 1 34 35
M  V30 78 1 34 36
M  V30 79 1 35 78
M  V30 80 1 36 37
M  V30 81 2 36 38
M  V30 82 1 37 79
M  V30 83 1 38 80
M  V30 END BOND
M  V30 END CTAB
M  END
> <s_m_entry_id>
1294

> <s_m_entry_name>
result.3851

> <s_m_Source_Path>
D:\OneDrive - zju.edu.cn\DOC\A-Finished\LCK_VS\Planet\LCK-8617

> <s_m_Source_File>
glide-dock_SP_top1262_2_pv.maegz

> <i_m_Source_File_Index>
1294

> <PLANET_affinity>
7.548

> <i_lp_mmshare_version>
54117

> <i_f3d_flags>
0

> <s_epik_input>
W09IXWMxW2NIXVtjSF1jKFtjSF1jMVtPSF0pW0NIMl1bQ0gyXUMoPU8pTihbQ0gyXVtDSDJdW0NIMl1bTkgyXSlbQ0gyXVtDSDJdW0NIMl1bQ0gyXVtOSF1bQ0gyXVtDSDJdW0NIMl1bTkhdQyg9TylbQ0gyXVtDSDJdYzJbY0hdW2NIXWMoW09IXSljKFtPSF0pW2NIXTI=

> <s_epik_cmdline>
J2VwaWtfcHl0aG9uJywgJy1waCcsICc3LjAnLCAnLXRuJywgJzgnLCAnLW1hJywgJzUwMCcsICctaW1hZScsICc8aW5maWxlLm1hZT4nLCAnLW9tYWUnLCAnPG91dGZpbGUubWFlPic=

> <r_epik_Ionization_Penalty>
  0.0052

> <r_epik_Ionization_Penalty_Charging>
  0.0015

> <r_epik_Ionization_Penalty_Neutral>
  0.0036

> <r_epik_State_Penalty>
  0.0000

> <r_epik_Charging_Adjusted_Penalty>
0.00154536

> <i_epik_Tot_Q>
2

> <i_epik_Tot_abs_Q>
2

> <s_lp_Force_Field>
S-OPLS

> <r_lp_Energy>
49.4869

> <b_lp_Chiralities_Consistent>
1

> <s_lp_Variant>
O=C(N(CCCN)CCCCNCCCNC(CCC1=CC=C(O)C(O)=C1)=O)CCC2=CC=C(O)C(O)=C2-1

> <s_i_glide_gridfile>
glide-grid_1

> <i_i_glide_lignum>
1861

> <i_i_glide_rotatable_bonds>
24

> <r_i_docking_score>
-7.3590713343964

> <r_i_glide_ligand_efficiency>
-0.1936597719578

> <r_i_glide_ligand_efficiency_sa>
-0.651079389818967

> <r_i_glide_ligand_efficiency_ln>
-1.5868322616416

> <r_i_glide_gscore>
-7.3590713343964

> <r_i_glide_lipo>
-2.75960833408835

> <r_i_glide_hbond>
-0.0051607172056284

> <r_i_glide_metal>
0

> <r_i_glide_rewards>
-0.749654681903527

> <r_i_glide_evdw>
-39.372745513916

> <r_i_glide_ecoul>
-20.7425098419189

> <r_i_glide_erotb>
1.38127757780339

> <r_i_glide_esite>
-0.145911427018641

> <r_i_glide_emodel>
-92.334321169157

> <r_i_glide_energy>
-60.115255355835

> <r_i_glide_einternal>
24.0566825866699

> <i_i_glide_confnum>
1316

> <i_i_glide_posenum>
326

> <r_i_glide_eff_state_penalty>
0

> <r_lp_tautomer_probability>
1

> <s_m_subgroup_title>
glide-dock_SP_top1262_2_pv

> <s_m_subgroupid>
glide-dock_SP_top1262_2_pv

> <b_m_subgroup_collapsed>
0

$$$$
O=[N+]([O-])C1=CC=C(C=C1)NC2=NC(N3CCN(CC3)C)=CC(NC4=NNC(C)=C4)=N2
                    3D
 Schrodinger Suite 2021-3.
  0  0  0     0  0            999 V3000
M  V30 BEGIN CTAB
M  V30 COUNTS 54 57 0 0 0
M  V30 BEGIN ATOM
M  V30 1 O  23.9006 40.7599 89.9528 0
M  V30 2 N  23.7086 40.4237 88.7858 0 CHG=1
M  V30 3 O  22.5852 40.3513 88.2931 0 CHG=-1
M  V30 4 C  24.8805 40.0718 87.9458 0
M  V30 5 C  26.1709 40.0537 88.4960 0
M  V30 6 C  27.2672 39.7063 87.7119 0
M  V30 7 C  27.0971 39.3630 86.3710 0
M  V30 8 C  25.8176 39.4077 85.8069 0
M  V30 9 C  24.7184 39.7542 86.5881 0
M  V30 10 N  28.2366 38.9801 85.6450 0
M  V30 11 C  28.4171 38.0168 84.6471 0
M  V30 12 N  29.7030 37.7027 84.3676 0
M  V30 13 C  29.9384 36.7109 83.4599 0
M  V30 14 N  31.2717 36.3480 83.2471 0
M  V30 15 C  31.7519 35.4699 82.1592 0
M  V30 16 C  32.7035 34.3514 82.6278 0
M  V30 17 N  33.9149 34.9771 83.3447 0 CHG=1
M  V30 18 C  34.8778 33.8680 83.8263 0
M  V30 19 C  33.3813 35.7973 84.5351 0
M  V30 20 C  32.4284 36.8910 83.9942 0
M  V30 21 C  28.8648 36.0607 82.8270 0
M  V30 22 C  27.5686 36.4418 83.1777 0
M  V30 23 N  27.3410 37.4189 84.0886 0
M  V30 24 N  26.4900 35.7682 82.5864 0
M  V30 25 C  25.1713 35.7557 82.9757 0
M  V30 26 N  24.2933 35.1563 82.2112 0
M  V30 27 N  23.1227 35.2696 82.8443 0
M  V30 28 C  23.1997 35.9566 84.0251 0
M  V30 29 C  22.0116 36.2138 84.9190 0
M  V30 30 C  24.5439 36.2674 84.1258 0
M  V30 31 H  26.3288 40.3064 89.5368 0
M  V30 32 H  28.2508 39.6888 88.1583 0
M  V30 33 H  25.6608 39.1807 84.7638 0
M  V30 34 H  23.7387 39.7774 86.1291 0
M  V30 35 H  29.1095 39.3210 86.0179 0
M  V30 36 H  30.9288 34.9873 81.6427 0
M  V30 37 H  32.2262 36.0834 81.3905 0
M  V30 38 H  33.0920 33.7739 81.7866 0
M  V30 39 H  32.2228 33.6746 83.3373 0
M  V30 40 H  34.3210 33.1619 84.4433 0
M  V30 41 H  35.2800 33.3774 82.9394 0
M  V30 42 H  35.6765 34.3417 84.4005 0
M  V30 43 H  34.2501 36.2279 85.0374 0
M  V30 44 H  32.8829 35.1075 85.2215 0
M  V30 45 H  32.9635 37.5960 83.3547 0
M  V30 46 H  32.0954 37.4888 84.8426 0
M  V30 47 H  29.0047 35.2594 82.1200 0
M  V30 48 H  26.7815 35.1865 81.8137 0
M  V30 49 H  22.2801 34.8436 82.4757 0
M  V30 50 H  21.6829 35.3045 85.4224 0
M  V30 51 H  21.1622 36.6088 84.3605 0
M  V30 52 H  22.2469 36.9387 85.6976 0
M  V30 53 H  25.0072 36.7934 84.9448 0
M  V30 54 H  34.3890 35.6008 82.7041 0
M  V30 END ATOM
M  V30 BEGIN BOND
M  V30 1 2 1 2
M  V30 2 1 2 3
M  V30 3 1 2 4
M  V30 4 2 4 5
M  V30 5 1 4 9
M  V30 6 1 5 6
M  V30 7 1 5 31
M  V30 8 2 6 7
M  V30 9 1 6 32
M  V30 10 1 7 8
M  V30 11 1 7 10
M  V30 12 2 8 9
M  V30 13 1 8 33
M  V30 14 1 9 34
M  V30 15 1 10 11
M  V30 16 1 10 35
M  V30 17 2 11 12
M  V30 18 1 11 23
M  V30 19 1 12 13
M  V30 20 1 13 14
M  V30 21 2 13 21
M  V30 22 1 14 15
M  V30 23 1 14 20
M  V30 24 1 15 16
M  V30 25 1 15 36
M  V30 26 1 15 37
M  V30 27 1 16 17
M  V30 28 1 16 38
M  V30 29 1 16 39
M  V30 30 1 17 18
M  V30 31 1 17 19
M  V30 32 1 17 54
M  V30 33 1 18 40
M  V30 34 1 18 41
M  V30 35 1 18 42
M  V30 36 1 19 20
M  V30 37 1 19 43
M  V30 38 1 19 44
M  V30 39 1 20 45
M  V30 40 1 20 46
M  V30 41 1 21 22
M  V30 42 1 21 47
M  V30 43 2 22 23
M  V30 44 1 22 24
M  V30 45 1 24 25
M  V30 46 1 24 48
M  V30 47 2 25 26
M  V30 48 1 25 30
M  V30 49 1 26 27
M  V30 50 1 27 28
M  V30 51 1 27 49
M  V30 52 1 28 29
M  V30 53 2 28 30
M  V30 54 1 29 50
M  V30 55 1 29 51
M  V30 56 1 29 52
M  V30 57 1 30 53
M  V30 END BOND
M  V30 END CTAB
M  END
> <s_m_entry_id>
1297

> <s_m_entry_name>
result.7111

> <s_m_Source_Path>
D:\OneDrive - zju.edu.cn\DOC\A-Finished\LCK_VS\Planet\LCK-8617

> <s_m_Source_File>
glide-dock_SP_top1262_2_pv.maegz

> <i_m_Source_File_Index>
1297

> <PLANET_affinity>
7.734

> <i_lp_mmshare_version>
54117

> <i_f3d_flags>
0

> <s_epik_input>
Tz1bTitdKFtPLV0pYzFbY0hdW2NIXWMoW2NIXVtjSF0xKVtOSF1jMm5jKE4zW0NIMl1bQ0gyXU4oW0NIM10pW0NIMl1bQ0gyXTMpW2NIXWMobjIpW05IXWM0bltuSF1jKFtDSDNdKVtjSF00

> <s_epik_cmdline>
J2VwaWtfcHl0aG9uJywgJy1waCcsICc3LjAnLCAnLXRuJywgJzgnLCAnLW1hJywgJzUwMCcsICctaW1hZScsICc8aW5maWxlLm1hZT4nLCAnLW9tYWUnLCAnPG91dGZpbGUubWFlPic=

> <r_epik_Ionization_Penalty>
  0.4717

> <r_epik_Ionization_Penalty_Charging>
  0.1866

> <r_epik_Ionization_Penalty_Neutral>
  0.2851

> <r_epik_State_Penalty>
  0.7092

> <r_epik_Charging_Adjusted_Penalty>
0.895867

> <i_epik_Tot_Q>
1

> <i_epik_Tot_abs_Q>
3

> <s_lp_Force_Field>
S-OPLS

> <r_lp_Energy>
42.4088

> <b_lp_Chiralities_Consistent>
1

> <s_lp_Variant>
O=[N+]([O-])C1=CC=C(C=C1)NC2=NC(N3CCN(CC3)C)=CC(NC4=NNC(C)=C4)=N2-1

> <s_i_glide_gridfile>
glide-grid_1

> <i_i_glide_lignum>
1598

> <i_i_glide_rotatable_bonds>
6

> <r_i_docking_score>
-7.35776746980712

> <r_i_glide_ligand_efficiency>
-0.245258915660237

> <r_i_glide_ligand_efficiency_sa>
-0.762076474250494

> <r_i_glide_ligand_efficiency_ln>
-1.67176493843782

> <r_i_glide_gscore>
-8.06696746980712

> <r_i_glide_lipo>
-1.98986587136932

> <r_i_glide_hbond>
-0.604530082316456

> <r_i_glide_metal>
0

> <r_i_glide_rewards>
-2.26454180755132

> <r_i_glide_evdw>
-39.4624061584473

> <r_i_glide_ecoul>
-10.8308591842651

> <r_i_glide_erotb>
0.409274804981094

> <r_i_glide_esite>
-0.0195553279889849

> <r_i_glide_emodel>
-78.4009119684279

> <r_i_glide_energy>
-50.2932653427124

> <r_i_glide_einternal>
2.66117143630981

> <i_i_glide_confnum>
5

> <i_i_glide_posenum>
289

> <r_i_glide_eff_state_penalty>
0.7092

> <s_m_subgroup_title>
glide-dock_SP_top1262_2_pv

> <s_m_subgroupid>
glide-dock_SP_top1262_2_pv

> <b_m_subgroup_collapsed>
0

$$$$
OC1(C#CC2=CC=C3N=C(NCCOC)N(C4=NC(N)=NC=C4)C3=C2)CCCCC1
                    3D
 Schrodinger Suite 2021-3.
  0  0  0     0  0            999 V3000
M  V30 BEGIN CTAB
M  V30 COUNTS 56 59 0 0 0
M  V30 BEGIN ATOM
M  V30 1 C  19.1623 39.8493 86.1399 0
M  V30 2 C  18.3294 38.9509 85.1898 0
M  V30 3 C  17.5764 37.8390 85.9456 0
M  V30 4 C  18.5001 37.0224 86.8592 0
M  V30 5 C  19.2839 37.9398 87.8110 0
M  V30 6 C  20.0923 39.0577 87.0936 0
M  V30 7 O  20.6317 39.9539 88.0433 0
M  V30 8 C  21.2230 38.4677 86.3473 0
M  V30 9 C  22.1059 37.9376 85.6924 0
M  V30 10 C  23.1027 37.2687 84.8773 0
M  V30 11 C  22.7036 36.2229 84.0446 0
M  V30 12 C  23.6165 35.5564 83.2314 0
M  V30 13 C  24.4311 37.7008 84.9299 0
M  V30 14 C  25.3564 37.0214 84.1233 0
M  V30 15 C  24.9580 35.9552 83.2768 0
M  V30 16 N  26.7152 37.1768 83.8788 0
M  V30 17 C  27.0320 36.1797 82.9557 0
M  V30 18 N  26.0119 35.4582 82.5726 0
M  V30 19 N  28.2794 35.9506 82.4432 0
M  V30 20 C  29.5223 35.7583 83.1745 0
M  V30 21 C  30.7337 36.3674 82.4458 0
M  V30 22 O  31.9333 36.2168 83.1946 0
M  V30 23 C  32.4875 34.9076 83.1851 0
M  V30 24 C  27.5636 38.1627 84.4458 0
M  V30 25 N  28.4633 38.7560 83.6148 0
M  V30 26 C  29.2242 39.7464 84.1388 0
M  V30 27 N  30.1373 40.3573 83.2918 0
M  V30 28 N  29.1610 40.2008 85.4129 0
M  V30 29 C  28.2623 39.5881 86.2271 0
M  V30 30 C  27.4250 38.5610 85.7826 0
M  V30 31 H  19.7199 40.5868 85.5597 0
M  V30 32 H  18.4792 40.4314 86.7584 0
M  V30 33 H  18.9841 38.5033 84.4402 0
M  V30 34 H  17.6061 39.5539 84.6431 0
M  V30 35 H  17.1008 37.1623 85.2441 0
M  V30 36 H  16.7732 38.2813 86.5403 0
M  V30 37 H  19.1994 36.4353 86.2603 0
M  V30 38 H  17.9137 36.3047 87.4345 0
M  V30 39 H  18.5549 38.4123 88.4685 0
M  V30 40 H  19.9175 37.3149 88.4428 0
M  V30 41 H  21.0364 40.6766 87.5584 0
M  V30 42 H  21.6670 35.9240 84.0089 0
M  V30 43 H  23.2884 34.7571 82.5829 0
M  V30 44 H  24.7151 38.5369 85.5515 0
M  V30 45 H  28.3200 35.5556 81.5089 0
M  V30 46 H  29.4456 36.1838 84.1748 0
M  V30 47 H  29.6629 34.6837 83.2838 0
M  V30 48 H  30.8485 35.9534 81.4419 0
M  V30 49 H  30.5746 37.4382 82.3235 0
M  V30 50 H  33.4159 34.9057 83.7545 0
M  V30 51 H  31.8224 34.1774 83.6455 0
M  V30 52 H  32.7151 34.5816 82.1693 0
M  V30 53 H  30.6888 41.1282 83.6431 0
M  V30 54 H  30.3592 39.9167 82.4134 0
M  V30 55 H  28.2273 39.9341 87.2504 0
M  V30 56 H  26.7284 38.0859 86.4563 0
M  V30 END ATOM
M  V30 BEGIN BOND
M  V30 1 1 1 2
M  V30 2 1 1 6
M  V30 3 1 1 31
M  V30 4 1 1 32
M  V30 5 1 2 3
M  V30 6 1 2 33
M  V30 7 1 2 34
M  V30 8 1 3 4
M  V30 9 1 3 35
M  V30 10 1 3 36
M  V30 11 1 4 5
M  V30 12 1 4 37
M  V30 13 1 4 38
M  V30 14 1 5 6
M  V30 15 1 5 39
M  V30 16 1 5 40
M  V30 17 1 6 7
M  V30 18 1 6 8
M  V30 19 1 7 41
M  V30 20 3 8 9
M  V30 21 1 9 10
M  V30 22 2 10 11
M  V30 23 1 10 13
M  V30 24 1 11 12
M  V30 25 1 11 42
M  V30 26 2 12 15
M  V30 27 1 12 43
M  V30 28 2 13 14
M  V30 29 1 13 44
M  V30 30 1 14 15
M  V30 31 1 14 16
M  V30 32 1 15 18
M  V30 33 1 16 17
M  V30 34 1 16 24
M  V30 35 2 17 18
M  V30 36 1 17 19
M  V30 37 1 19 20
M  V30 38 1 19 45
M  V30 39 1 20 21
M  V30 40 1 20 46
M  V30 41 1 20 47
M  V30 42 1 21 22
M  V30 43 1 21 48
M  V30 44 1 21 49
M  V30 45 1 22 23
M  V30 46 1 23 50
M  V30 47 1 23 51
M  V30 48 1 23 52
M  V30 49 2 24 25
M  V30 50 1 24 30
M  V30 51 1 25 26
M  V30 52 1 26 27
M  V30 53 2 26 28
M  V30 54 1 27 53
M  V30 55 1 27 54
M  V30 56 1 28 29
M  V30 57 2 29 30
M  V30 58 1 29 55
M  V30 59 1 30 56
M  V30 END BOND
M  V30 END CTAB
M  END
> <s_m_entry_id>
1299

> <s_m_entry_name>
result.3283

> <s_m_Source_Path>
D:\OneDrive - zju.edu.cn\DOC\A-Finished\LCK_VS\Planet\LCK-8617

> <s_m_Source_File>
glide-dock_SP_top1262_2_pv.maegz

> <i_m_Source_File_Index>
1299

> <PLANET_affinity>
7.52

> <i_lp_mmshare_version>
54117

> <i_f3d_flags>
0

> <s_epik_input>
W0NIMl0xW0NIMl1bQ0gyXVtDSDJdW0NIMl1DMShbT0hdKUMjQ2MoW2NIXTIpW2NIXVtjSF1jKGMyMyluYyhbTkhdW0NIMl1bQ0gyXU9bQ0gzXSluMy1jNG5jKFtOSDJdKW5bY0hdW2NIXTQ=

> <s_epik_cmdline>
J2VwaWtfcHl0aG9uJywgJy1waCcsICc3LjAnLCAnLXRuJywgJzgnLCAnLW1hJywgJzUwMCcsICctaW1hZScsICc8aW5maWxlLm1hZT4nLCAnLW9tYWUnLCAnPG91dGZpbGUubWFlPic=

> <r_epik_Ionization_Penalty>
  0.0721

> <r_epik_Ionization_Penalty_Charging>
  0.0000

> <r_epik_Ionization_Penalty_Neutral>
  0.0721

> <r_epik_State_Penalty>
  0.0633

> <r_epik_Charging_Adjusted_Penalty>
0.0632779

> <i_epik_Tot_Q>
0

> <i_epik_Tot_abs_Q>
0

> <s_lp_Force_Field>
S-OPLS

> <r_lp_Energy>
29.6377

> <b_lp_Chiralities_Consistent>
1

> <s_lp_Variant>
OC1(C#CC2=CC=C3N=C(NCCOC)N(C4=NC(N)=NC=C4)C3=C2)CCCCC1-1

> <s_i_glide_gridfile>
glide-grid_1

> <i_i_glide_lignum>
1913

> <i_i_glide_rotatable_bonds>
8

> <r_i_docking_score>
-7.3572027334246

> <r_i_glide_ligand_efficiency>
-0.245240091114153

> <r_i_glide_ligand_efficiency_sa>
-0.762017982009059

> <r_i_glide_ligand_efficiency_ln>
-1.67163662417841

> <r_i_glide_gscore>
-7.4205027334246

> <r_i_glide_lipo>
-2.87958917555752

> <r_i_glide_hbond>
-0.401098414564258

> <r_i_glide_metal>
0

> <r_i_glide_rewards>
-1.76704178575025

> <r_i_glide_evdw>
-41.9416885375977

> <r_i_glide_ecoul>
-6.24972343444824

> <r_i_glide_erotb>
0.714026342700183

> <r_i_glide_esite>
-0.0522567582056377

> <r_i_glide_emodel>
-63.196281646765

> <r_i_glide_energy>
-48.1914119720459

> <r_i_glide_einternal>
9.71749114990234

> <i_i_glide_confnum>
190

> <i_i_glide_posenum>
318

> <r_i_glide_eff_state_penalty>
0.0633

> <s_m_subgroup_title>
glide-dock_SP_top1262_2_pv

> <s_m_subgroupid>
glide-dock_SP_top1262_2_pv

> <b_m_subgroup_collapsed>
0

$$$$
O=C(NC1=CC=CC(F)=C1)NC2=CC=C(C3=CSC4=C3C(N)=NC=C4C5=CN(CCO)N=C5)C=C2.[H]Cl
                    3D
 Schrodinger Suite 2021-3.
  0  0  0     0  0            999 V3000
M  V30 BEGIN CTAB
M  V30 COUNTS 56 60 0 0 0
M  V30 BEGIN ATOM
M  V30 1 F  37.8910 39.4076 79.2295 0
M  V30 2 C  36.6828 38.8009 79.2456 0
M  V30 3 C  35.7527 39.1303 80.2313 0
M  V30 4 C  36.3620 37.8632 78.2655 0
M  V30 5 C  35.1122 37.2464 78.2748 0
M  V30 6 C  34.1847 37.5650 79.2668 0
M  V30 7 C  34.4969 38.5125 80.2598 0
M  V30 8 N  33.6132 38.9117 81.2845 0
M  V30 9 C  32.4827 38.3066 81.7001 0
M  V30 10 O  32.0722 37.2276 81.2698 0
M  V30 11 N  31.8446 39.0402 82.6386 0
M  V30 12 C  30.6092 38.7415 83.2446 0
M  V30 13 C  30.1500 37.4338 83.4471 0
M  V30 14 C  28.8719 37.2115 83.9430 0
M  V30 15 C  28.0331 38.2841 84.2554 0
M  V30 16 C  28.5179 39.5893 84.1129 0
M  V30 17 C  29.8029 39.8184 83.6245 0
M  V30 18 C  26.6235 38.0543 84.7102 0
M  V30 19 C  26.1053 38.7111 85.8126 0
M  V30 20 S  24.4467 38.3573 86.1861 0
M  V30 21 C  25.6215 37.1811 84.1275 0
M  V30 22 C  24.3788 37.2158 84.8498 0
M  V30 23 C  25.6356 36.3518 82.9750 0
M  V30 24 N  26.7095 36.3562 82.0908 0
M  V30 25 N  24.5976 35.5578 82.6186 0
M  V30 26 C  23.4544 35.6150 83.3335 0
M  V30 27 C  23.2660 36.4526 84.4351 0
M  V30 28 C  21.9049 36.5998 85.0149 0
M  V30 29 C  21.4529 36.4774 86.3206 0
M  V30 30 N  20.1100 36.7741 86.2943 0
M  V30 31 N  19.6829 37.0446 85.0536 0
M  V30 32 C  20.7526 36.9518 84.3037 0
M  V30 33 C  19.1607 36.7553 87.4101 0
M  V30 34 C  18.3900 38.0814 87.6197 0
M  V30 35 O  17.4773 38.3566 86.5774 0
M  V30 36 H  36.0186 39.8681 80.9750 0
M  V30 37 H  37.0824 37.6192 77.4975 0
M  V30 38 H  34.8579 36.5209 77.5134 0
M  V30 39 H  33.2292 37.0693 79.2414 0
M  V30 40 H  33.8914 39.7400 81.7848 0
M  V30 41 H  32.2043 39.9631 82.8258 0
M  V30 42 H  30.7600 36.5780 83.1990 0
M  V30 43 H  28.5312 36.1946 84.0434 0
M  V30 44 H  27.8895 40.4328 84.3610 0
M  V30 45 H  30.1470 40.8359 83.4969 0
M  V30 46 H  26.6306 39.4179 86.4379 0
M  V30 47 H  27.5241 36.9072 82.3224 0
M  V30 48 H  26.7337 35.7453 81.2814 0
M  V30 49 H  22.6447 35.0008 82.9643 0
M  V30 50 H  21.9560 36.2178 87.2407 0
M  V30 51 H  20.7137 37.1560 83.2444 0
M  V30 52 H  18.4949 35.8965 87.3500 0
M  V30 53 H  19.7573 36.5875 88.3069 0
M  V30 54 H  17.8751 38.0936 88.5792 0
M  V30 55 H  19.0941 38.9145 87.6417 0
M  V30 56 H  17.0384 39.1955 86.7881 0
M  V30 END ATOM
M  V30 BEGIN BOND
M  V30 1 1 1 2
M  V30 2 2 2 3
M  V30 3 1 2 4
M  V30 4 1 3 7
M  V30 5 1 3 36
M  V30 6 2 4 5
M  V30 7 1 4 37
M  V30 8 1 5 6
M  V30 9 1 5 38
M  V30 10 2 6 7
M  V30 11 1 6 39
M  V30 12 1 7 8
M  V30 13 1 8 9
M  V30 14 1 8 40
M  V30 15 2 9 10
M  V30 16 1 9 11
M  V30 17 1 11 12
M  V30 18 1 11 41
M  V30 19 2 12 13
M  V30 20 1 12 17
M  V30 21 1 13 14
M  V30 22 1 13 42
M  V30 23 2 14 15
M  V30 24 1 14 43
M  V30 25 1 15 16
M  V30 26 1 15 18
M  V30 27 2 16 17
M  V30 28 1 16 44
M  V30 29 1 17 45
M  V30 30 2 18 19
M  V30 31 1 18 21
M  V30 32 1 19 20
M  V30 33 1 19 46
M  V30 34 1 20 22
M  V30 35 2 21 22
M  V30 36 1 21 23
M  V30 37 1 22 27
M  V30 38 1 23 24
M  V30 39 2 23 25
M  V30 40 1 24 47
M  V30 41 1 24 48
M  V30 42 1 25 26
M  V30 43 2 26 27
M  V30 44 1 26 49
M  V30 45 1 27 28
M  V30 46 2 28 29
M  V30 47 1 28 32
M  V30 48 1 29 30
M  V30 49 1 29 50
M  V30 50 1 30 31
M  V30 51 1 30 33
M  V30 52 2 31 32
M  V30 53 1 32 51
M  V30 54 1 33 34
M  V30 55 1 33 52
M  V30 56 1 33 53
M  V30 57 1 34 35
M  V30 58 1 34 54
M  V30 59 1 34 55
M  V30 60 1 35 56
M  V30 END BOND
M  V30 END CTAB
M  END
> <s_m_entry_id>
1306

> <s_m_entry_name>
result.2274

> <s_m_Source_Path>
D:\OneDrive - zju.edu.cn\DOC\A-Finished\LCK_VS\Planet\LCK-8617

> <s_m_Source_File>
glide-dock_SP_top1262_2_pv.maegz

> <i_m_Source_File_Index>
1306

> <PLANET_affinity>
7.295

> <i_lp_mmshare_version>
54117

> <i_f3d_flags>
0

> <s_epik_input>
RmMxW2NIXWMoW2NIXVtjSF1bY0hdMSlbTkhdQyg9TylbTkhdYzJbY0hdW2NIXWMoW2NIXVtjSF0yKS1jM1tjSF1zYyhjMzQpYyhbY0hdbmM0W05IMl0pLWM1W2NIXW4obltjSF01KVtDSDJdW0NIMl1bT0hd

> <s_epik_cmdline>
J2VwaWtfcHl0aG9uJywgJy1waCcsICc3LjAnLCAnLXRuJywgJzgnLCAnLW1hJywgJzUwMCcsICctaW1hZScsICc8aW5maWxlLm1hZT4nLCAnLW9tYWUnLCAnPG91dGZpbGUubWFlPic=

> <r_epik_Ionization_Penalty>
  0.3120

> <r_epik_Ionization_Penalty_Charging>
  0.0000

> <r_epik_Ionization_Penalty_Neutral>
  0.3120

> <r_epik_State_Penalty>
  0.3057

> <r_epik_Charging_Adjusted_Penalty>
0.305692

> <i_epik_Tot_Q>
0

> <i_epik_Tot_abs_Q>
0

> <s_lp_Force_Field>
S-OPLS

> <r_lp_Energy>
50.9564

> <b_lp_Chiralities_Consistent>
1

> <s_lp_Variant>
O=C(NC1=CC=CC(F)=C1)NC2=CC=C(C3=CSC4=C3C(N)=NC=C4C5=CN(CCO)N=C5)C=C2.[H]Cl-1

> <s_i_glide_gridfile>
glide-grid_1

> <i_i_glide_lignum>
2250

> <i_i_glide_rotatable_bonds>
9

> <r_i_docking_score>
-7.35194732303473

> <r_i_glide_ligand_efficiency>
-0.210055637800992

> <r_i_glide_ligand_efficiency_sa>
-0.687105919261702

> <r_i_glide_ligand_efficiency_ln>
-1.61391560508572

> <r_i_glide_gscore>
-7.65764732303473

> <r_i_glide_lipo>
-3.29784264067541

> <r_i_glide_hbond>
-0.447412196765156

> <r_i_glide_metal>
0

> <r_i_glide_rewards>
-1.36817053001509

> <r_i_glide_evdw>
-46.6888236999512

> <r_i_glide_ecoul>
-5.37503480911255

> <r_i_glide_erotb>
0.596474450785364

> <r_i_glide_esite>
0

> <r_i_glide_emodel>
-76.22297985355

> <r_i_glide_energy>
-52.0638585090637

> <r_i_glide_einternal>
5.28255701065063

> <i_i_glide_confnum>
70

> <i_i_glide_posenum>
233

> <r_i_glide_eff_state_penalty>
0.3057

> <r_lp_tautomer_probability>
1

> <s_m_subgroup_title>
glide-dock_SP_top1262_2_pv

> <s_m_subgroupid>
glide-dock_SP_top1262_2_pv

> <b_m_subgroup_collapsed>
0

$$$$
OC1CCN(C2=NC=CC3=C(C4=CC=C(NC(C5)=O)C5=C4)C(C6=CC=C(F)C=C6)=NN32)CC1
                    3D
 Schrodinger Suite 2021-3.
  0  0  0     0  0            999 V3000
M  V30 BEGIN CTAB
M  V30 COUNTS 55 60 0 0 0
M  V30 BEGIN ATOM
M  V30 1 O  18.8819 39.0999 87.6366 0
M  V30 2 C  18.5366 37.8614 87.0398 0
M  V30 3 C  18.5443 37.9597 85.5029 0
M  V30 4 C  19.9656 38.0127 84.8874 0
M  V30 5 N  20.8465 36.9277 85.3631 0
M  V30 6 C  20.9275 36.9647 86.8316 0
M  V30 7 C  19.5340 36.7695 87.4644 0
M  V30 8 C  21.9624 36.6091 84.5926 0
M  V30 9 N  21.6844 35.9576 83.4422 0
M  V30 10 C  22.7051 35.5610 82.6500 0
M  V30 11 C  24.0437 35.8320 82.9200 0
M  V30 12 N  23.2635 36.9842 84.8739 0
M  V30 13 C  24.3404 36.6289 84.0427 0
M  V30 14 N  23.6685 37.7912 85.8700 0
M  V30 15 C  24.9528 38.0132 85.6778 0
M  V30 16 C  25.6187 38.9690 86.6142 0
M  V30 17 C  26.8466 38.6391 87.1843 0
M  V30 18 C  27.4915 39.5356 88.0315 0
M  V30 19 C  26.8862 40.7502 88.3427 0
M  V30 20 F  27.5029 41.6106 89.1832 0
M  V30 21 C  25.6471 41.0813 87.7998 0
M  V30 22 C  25.0144 40.1932 86.9332 0
M  V30 23 C  25.4825 37.2948 84.5723 0
M  V30 24 C  26.8777 37.2520 83.9950 0
M  V30 25 C  27.3156 36.1384 83.2476 0
M  V30 26 C  28.6367 36.0341 82.8108 0
M  V30 27 C  27.7687 38.3242 84.1658 0
M  V30 28 C  29.0921 38.2159 83.7339 0
M  V30 29 C  29.5171 37.0739 83.0872 0
M  V30 30 C  30.2602 39.1481 83.8437 0
M  V30 31 C  31.3993 38.3467 83.2095 0
M  V30 32 O  32.5661 38.7112 83.0978 0
M  V30 33 N  30.8669 37.1835 82.7950 0
M  V30 34 H  18.2112 39.7515 87.3980 0
M  V30 35 H  17.5460 37.5919 87.4109 0
M  V30 36 H  18.0042 38.8581 85.2022 0
M  V30 37 H  17.9748 37.1482 85.0544 0
M  V30 38 H  20.4389 38.9766 85.0852 0
M  V30 39 H  19.8643 37.9316 83.8036 0
M  V30 40 H  21.5806 36.1618 87.1785 0
M  V30 41 H  21.3703 37.9075 87.1574 0
M  V30 42 H  19.1562 35.7733 87.2336 0
M  V30 43 H  19.6332 36.7693 88.5471 0
M  V30 44 H  22.4166 35.1556 81.6970 0
M  V30 45 H  24.7939 35.5772 82.1902 0
M  V30 46 H  27.2847 37.6821 86.9482 0
M  V30 47 H  28.4579 39.2942 88.4467 0
M  V30 48 H  25.1831 42.0252 88.0478 0
M  V30 49 H  24.0559 40.4602 86.5085 0
M  V30 50 H  26.6741 35.2893 83.0842 0
M  V30 51 H  28.9629 35.1457 82.2868 0
M  V30 52 H  27.4463 39.2248 84.6646 0
M  V30 53 H  30.5109 39.3755 84.8797 0
M  V30 54 H  30.1122 40.0773 83.2922 0
M  V30 55 H  31.4099 36.4706 82.3308 0
M  V30 END ATOM
M  V30 BEGIN BOND
M  V30 1 1 1 2
M  V30 2 1 1 34
M  V30 3 1 2 3
M  V30 4 1 2 7
M  V30 5 1 2 35
M  V30 6 1 3 4
M  V30 7 1 3 36
M  V30 8 1 3 37
M  V30 9 1 4 5
M  V30 10 1 4 38
M  V30 11 1 4 39
M  V30 12 1 5 6
M  V30 13 1 5 8
M  V30 14 1 6 7
M  V30 15 1 6 40
M  V30 16 1 6 41
M  V30 17 1 7 42
M  V30 18 1 7 43
M  V30 19 2 8 9
M  V30 20 1 8 12
M  V30 21 1 9 10
M  V30 22 2 10 11
M  V30 23 1 10 44
M  V30 24 1 11 13
M  V30 25 1 11 45
M  V30 26 1 12 13
M  V30 27 1 12 14
M  V30 28 2 13 23
M  V30 29 2 14 15
M  V30 30 1 15 16
M  V30 31 1 15 23
M  V30 32 2 16 17
M  V30 33 1 16 22
M  V30 34 1 17 18
M  V30 35 1 17 46
M  V30 36 2 18 19
M  V30 37 1 18 47
M  V30 38 1 19 20
M  V30 39 1 19 21
M  V30 40 2 21 22
M  V30 41 1 21 48
M  V30 42 1 22 49
M  V30 43 1 23 24
M  V30 44 2 24 25
M  V30 45 1 24 27
M  V30 46 1 25 26
M  V30 47 1 25 50
M  V30 48 2 26 29
M  V30 49 1 26 51
M  V30 50 2 27 28
M  V30 51 1 27 52
M  V30 52 1 28 29
M  V30 53 1 28 30
M  V30 54 1 29 33
M  V30 55 1 30 31
M  V30 56 1 30 53
M  V30 57 1 30 54
M  V30 58 2 31 32
M  V30 59 1 31 33
M  V30 60 1 33 55
M  V30 END BOND
M  V30 END CTAB
M  END
> <s_m_entry_id>
1307

> <s_m_entry_name>
result.2333

> <s_m_Source_Path>
D:\OneDrive - zju.edu.cn\DOC\A-Finished\LCK_VS\Planet\LCK-8617

> <s_m_Source_File>
glide-dock_SP_top1262_2_pv.maegz

> <i_m_Source_File_Index>
1307

> <PLANET_affinity>
7.6

> <i_lp_mmshare_version>
54117

> <i_f3d_flags>
0

> <s_epik_input>
W09IXVtDSF0xW0NIMl1bQ0gyXU4oW0NIMl1bQ0gyXTEpYzJuW2NIXVtjSF1jKG4yMyljKGMobjMpLWM0W2NIXVtjSF1jKEYpW2NIXVtjSF00KS1jKFtjSF01KVtjSF1bY0hdYyhjNTYpW05IXUMoPU8pW0NIMl02

> <s_epik_cmdline>
J2VwaWtfcHl0aG9uJywgJy1waCcsICc3LjAnLCAnLXRuJywgJzgnLCAnLW1hJywgJzUwMCcsICctaW1hZScsICc8aW5maWxlLm1hZT4nLCAnLW9tYWUnLCAnPG91dGZpbGUubWFlPic=

> <r_epik_Ionization_Penalty>
  0.0000

> <r_epik_Ionization_Penalty_Charging>
  0.0000

> <r_epik_Ionization_Penalty_Neutral>
  0.0000

> <r_epik_State_Penalty>
  0.0000

> <r_epik_Charging_Adjusted_Penalty>
0

> <i_epik_Tot_Q>
0

> <i_epik_Tot_abs_Q>
0

> <s_lp_Force_Field>
S-OPLS

> <r_lp_Energy>
40.71

> <b_lp_Chiralities_Consistent>
1

> <s_lp_Variant>
OC1CCN(C2=NC=CC3=C(C4=CC=C(NC(C5)=O)C5=C4)C(C6=CC=C(F)C=C6)=NN32)CC1-1

> <s_i_glide_gridfile>
glide-grid_1

> <i_i_glide_lignum>
1801

> <i_i_glide_rotatable_bonds>
4

> <r_i_docking_score>
-7.35135398698658

> <r_i_glide_ligand_efficiency>
-0.222768302635957

> <r_i_glide_ligand_efficiency_sa>
-0.714536977506937

> <r_i_glide_ligand_efficiency_ln>
-1.63490306343197

> <r_i_glide_gscore>
-7.35135398698658

> <r_i_glide_lipo>
-3.50094573506563

> <r_i_glide_hbond>
-0.118748341485284

> <r_i_glide_metal>
0

> <r_i_glide_rewards>
-1.25512739367922

> <r_i_glide_evdw>
-43.8149909973145

> <r_i_glide_ecoul>
-3.93828415870667

> <r_i_glide_erotb>
0.304959656915279

> <r_i_glide_esite>
0

> <r_i_glide_emodel>
-66.2826732812375

> <r_i_glide_energy>
-47.7532751560211

> <r_i_glide_einternal>
7.58413934707642

> <i_i_glide_confnum>
123

> <i_i_glide_posenum>
14

> <r_i_glide_eff_state_penalty>
0

> <r_lp_tautomer_probability>
1

> <s_m_subgroup_title>
glide-dock_SP_top1262_2_pv

> <s_m_subgroupid>
glide-dock_SP_top1262_2_pv

> <b_m_subgroup_collapsed>
0

$$$$
O=C(C1=C(NC2=CC=C(C(N3CCOCC3)=O)C=C2)OC(C4=C(F)C=CC=C4Cl)=N1)N
                    3D
 Schrodinger Suite 2021-3.
  0  0  0     0  0            999 V3000
M  V30 BEGIN CTAB
M  V30 COUNTS 49 52 0 0 0
M  V30 BEGIN ATOM
M  V30 1 Cl 21.4507 34.8807 87.6531 0
M  V30 2 C  20.4348 36.1459 87.0488 0
M  V30 3 C  19.1867 36.3485 87.6433 0
M  V30 4 C  18.3285 37.3355 87.1612 0
M  V30 5 C  18.7151 38.1185 86.0747 0
M  V30 6 C  19.9643 37.9302 85.4808 0
M  V30 7 F  20.3278 38.7215 84.4448 0
M  V30 8 C  20.8398 36.9522 85.9727 0
M  V30 9 C  22.2158 36.8345 85.4169 0
M  V30 10 N  22.6198 36.3097 84.2830 0
M  V30 11 O  23.2136 37.3245 86.1805 0
M  V30 12 C  24.3341 37.0923 85.4666 0
M  V30 13 C  23.9452 36.4421 84.2796 0
M  V30 14 C  24.7671 35.9097 83.2232 0
M  V30 15 O  24.6562 34.7566 82.8313 0
M  V30 16 N  25.5966 36.7591 82.6255 0
M  V30 17 N  25.4628 37.5269 86.1150 0
M  V30 18 C  26.5479 38.1545 85.5090 0
M  V30 19 C  26.7138 39.5254 85.6780 0
M  V30 20 C  27.7654 40.1729 85.0405 0
M  V30 21 C  28.6704 39.4460 84.2569 0
M  V30 22 C  28.5206 38.0617 84.1299 0
M  V30 23 C  27.4686 37.4228 84.7687 0
M  V30 24 C  29.6910 40.1923 83.4419 0
M  V30 25 O  29.2846 41.1861 82.8436 0
M  V30 26 N  30.9726 39.7426 83.3454 0
M  V30 27 C  31.5544 38.6505 84.1484 0
M  V30 28 C  32.1006 37.6108 83.1437 0
M  V30 29 O  33.0411 38.2308 82.2683 0
M  V30 30 C  32.4829 39.3041 81.5096 0
M  V30 31 C  31.9327 40.4080 82.4427 0
M  V30 32 H  18.8743 35.7263 88.4696 0
M  V30 33 H  17.3628 37.4908 87.6220 0
M  V30 34 H  18.0495 38.8850 85.7043 0
M  V30 35 H  25.7250 37.6891 82.9949 0
M  V30 36 H  26.1476 36.4398 81.8425 0
M  V30 37 H  25.2906 37.9375 87.0202 0
M  V30 38 H  26.0096 40.0992 86.2627 0
M  V30 39 H  27.8561 41.2466 85.1354 0
M  V30 40 H  29.1752 37.4778 83.5002 0
M  V30 41 H  27.3343 36.3593 84.6432 0
M  V30 42 H  32.4057 39.1094 84.6535 0
M  V30 43 H  30.9365 38.2472 84.9500 0
M  V30 44 H  31.2948 37.1532 82.5665 0
M  V30 45 H  32.5841 36.7926 83.6788 0
M  V30 46 H  31.6993 38.9282 80.8484 0
M  V30 47 H  33.2514 39.7192 80.8579 0
M  V30 48 H  31.5207 41.2534 81.8879 0
M  V30 49 H  32.7332 40.7788 83.0843 0
M  V30 END ATOM
M  V30 BEGIN BOND
M  V30 1 1 1 2
M  V30 2 2 2 3
M  V30 3 1 2 8
M  V30 4 1 3 4
M  V30 5 1 3 32
M  V30 6 2 4 5
M  V30 7 1 4 33
M  V30 8 1 5 6
M  V30 9 1 5 34
M  V30 10 1 6 7
M  V30 11 2 6 8
M  V30 12 1 8 9
M  V30 13 2 9 10
M  V30 14 1 9 11
M  V30 15 1 10 13
M  V30 16 1 11 12
M  V30 17 2 12 13
M  V30 18 1 12 17
M  V30 19 1 13 14
M  V30 20 2 14 15
M  V30 21 1 14 16
M  V30 22 1 16 35
M  V30 23 1 16 36
M  V30 24 1 17 18
M  V30 25 1 17 37
M  V30 26 2 18 19
M  V30 27 1 18 23
M  V30 28 1 19 20
M  V30 29 1 19 38
M  V30 30 2 20 21
M  V30 31 1 20 39
M  V30 32 1 21 22
M  V30 33 1 21 24
M  V30 34 2 22 23
M  V30 35 1 22 40
M  V30 36 1 23 41
M  V30 37 2 24 25
M  V30 38 1 24 26
M  V30 39 1 26 27
M  V30 40 1 26 31
M  V30 41 1 27 28
M  V30 42 1 27 42
M  V30 43 1 27 43
M  V30 44 1 28 29
M  V30 45 1 28 44
M  V30 46 1 28 45
M  V30 47 1 29 30
M  V30 48 1 30 31
M  V30 49 1 30 46
M  V30 50 1 30 47
M  V30 51 1 31 48
M  V30 52 1 31 49
M  V30 END BOND
M  V30 END CTAB
M  END
> <s_m_entry_id>
1311

> <s_m_entry_name>
result.491

> <s_m_Source_Path>
D:\OneDrive - zju.edu.cn\DOC\A-Finished\LCK_VS\Planet\LCK-8617

> <s_m_Source_File>
glide-dock_SP_top1262_2_pv.maegz

> <i_m_Source_File_Index>
1311

> <PLANET_affinity>
7.64

> <i_lp_mmshare_version>
54117

> <i_f3d_flags>
0

> <s_epik_input>
Q2xjMVtjSF1bY0hdW2NIXWMoRiljMS1jMm5jKEMoPU8pW05IMl0pYyhvMilbTkhdYzNbY0hdW2NIXWMoW2NIXVtjSF0zKUMoPU8pTjRbQ0gyXVtDSDJdT1tDSDJdW0NIMl00

> <s_epik_cmdline>
J2VwaWtfcHl0aG9uJywgJy1waCcsICc3LjAnLCAnLXRuJywgJzgnLCAnLW1hJywgJzUwMCcsICctaW1hZScsICc8aW5maWxlLm1hZT4nLCAnLW9tYWUnLCAnPG91dGZpbGUubWFlPic=

> <r_epik_Ionization_Penalty>
  0.0000

> <r_epik_Ionization_Penalty_Charging>
  0.0000

> <r_epik_Ionization_Penalty_Neutral>
  0.0000

> <r_epik_State_Penalty>
  0.0104

> <r_epik_Charging_Adjusted_Penalty>
0.0104121

> <i_epik_Tot_Q>
0

> <i_epik_Tot_abs_Q>
0

> <s_lp_Force_Field>
S-OPLS

> <r_lp_Energy>
35.4138

> <b_lp_Chiralities_Consistent>
1

> <s_lp_Variant>
O=C(C1=C(NC2=CC=C(C(N3CCOCC3)=O)C=C2)OC(C4=C(F)C=CC=C4Cl)=N1)N-1

> <s_i_glide_gridfile>
glide-grid_1

> <i_i_glide_lignum>
1744

> <i_i_glide_rotatable_bonds>
6

> <r_i_docking_score>
-7.34992553780353

> <r_i_glide_ligand_efficiency>
-0.237094372187211

> <r_i_glide_ligand_efficiency_sa>
-0.744803672727239

> <r_i_glide_ligand_efficiency_ln>
-1.65763345694115

> <r_i_glide_gscore>
-7.36032553780353

> <r_i_glide_lipo>
-2.96589088331009

> <r_i_glide_hbond>
-0.534349181364128

> <r_i_glide_metal>
0

> <r_i_glide_rewards>
-1.17042521796748

> <r_i_glide_evdw>
-44.5250091552734

> <r_i_glide_ecoul>
-6.1636815071106

> <r_i_glide_erotb>
0.505426180421564

> <r_i_glide_esite>
-0.0442837517531457

> <r_i_glide_emodel>
-62.9793888845228

> <r_i_glide_energy>
-50.688690662384

> <r_i_glide_einternal>
19.5871810913086

> <i_i_glide_confnum>
379

> <i_i_glide_posenum>
373

> <r_i_glide_eff_state_penalty>
0.0104

> <r_lp_tautomer_probability>
0.976679

> <s_m_subgroup_title>
glide-dock_SP_top1262_2_pv

> <s_m_subgroupid>
glide-dock_SP_top1262_2_pv

> <b_m_subgroup_collapsed>
0

$$$$
NC1=NC=NC2=C1C(Br)=CN2[C@H]3[C@H](O)[C@H](O)[C@@H](CN(CCCNC(NC4=CC=C(C(C)(C)C...
                    3D
 Schrodinger Suite 2021-3.
  0  0  0     0  0            999 V3000
M  V30 BEGIN CTAB
M  V30 COUNTS 81 84 0 0 0
M  V30 BEGIN ATOM
M  V30 1 N  23.3555 40.7570 91.5819 0
M  V30 2 C  24.0515 40.7912 92.7497 0
M  V30 3 N  25.3261 41.2131 92.9416 0
M  V30 4 C  26.0035 41.6315 91.8462 0
M  V30 5 N  27.2913 42.1197 92.0433 0
M  V30 6 C  25.4222 41.6059 90.5666 0
M  V30 7 C  24.0650 41.1699 90.5163 0
M  V30 8 C  25.8053 41.9127 89.2211 0
M  V30 9 Br 27.5438 42.4997 88.7123 0
M  V30 10 C  24.6954 41.6925 88.4348 0
M  V30 11 N  23.6161 41.2985 89.2032 0
M  V30 12 C  22.2824 40.9727 88.7341 0 CFG=1
M  V30 13 C  21.6531 41.9318 87.7260 0 CFG=2
M  V30 14 O  21.1990 43.0990 88.4051 0
M  V30 15 C  20.5811 41.0106 87.1270 0 CFG=2
M  V30 16 O  19.2827 41.1570 87.6661 0
M  V30 17 C  21.0732 39.5715 87.3866 0 CFG=2
M  V30 18 O  22.2722 39.7101 88.1368 0
M  V30 19 C  21.2561 38.7470 86.0894 0
M  V30 20 N  21.7677 37.2938 86.3151 0 CHG=1 CFG=1
M  V30 21 C  21.1059 36.5008 87.4861 0
M  V30 22 C  21.7299 35.0938 87.6433 0
M  V30 23 C  19.5731 36.4504 87.3560 0
M  V30 24 C  21.8644 36.5474 84.9519 0
M  V30 25 C  23.2680 36.7575 84.3753 0
M  V30 26 C  23.6296 35.7814 83.2238 0
M  V30 27 N  24.9539 35.9566 82.5956 0
M  V30 28 C  26.1201 36.1288 83.2422 0
M  V30 29 O  26.1839 36.3624 84.4447 0
M  V30 30 N  27.2045 36.0097 82.4462 0
M  V30 31 C  28.5423 36.2568 82.8180 0
M  V30 32 C  29.5344 35.5546 82.1345 0
M  V30 33 C  30.8749 35.7588 82.4437 0
M  V30 34 C  31.2585 36.6803 83.4289 0
M  V30 35 C  32.7641 36.8628 83.7539 0
M  V30 36 C  33.0234 37.8584 84.9137 0
M  V30 37 C  33.5030 37.3960 82.5020 0
M  V30 38 C  33.3834 35.5053 84.1772 0
M  V30 39 C  30.2558 37.4128 84.0821 0
M  V30 40 C  28.9131 37.2061 83.7814 0
M  V30 41 H  23.5262 40.4552 93.6324 0
M  V30 42 H  27.7964 42.4940 91.2541 0
M  V30 43 H  27.6486 42.1923 92.9848 0
M  V30 44 H  24.5851 41.8070 87.3651 0
M  V30 45 H  21.6586 40.9165 89.6288 0
M  V30 46 H  22.3865 42.1760 86.9546 0
M  V30 47 H  20.7940 43.7140 87.7705 0
M  V30 48 H  20.5134 41.2106 86.0563 0
M  V30 49 H  18.9613 42.0604 87.5373 0
M  V30 50 H  20.3719 39.0589 88.0430 0
M  V30 51 H  21.9800 39.2146 85.4201 0
M  V30 52 H  20.3031 38.6476 85.5657 0
M  V30 53 H  21.3914 37.0884 88.3600 0
M  V30 54 H  21.4247 34.6296 88.5760 0
M  V30 55 H  21.4054 34.3885 86.8789 0
M  V30 56 H  22.8196 35.1250 87.6431 0
M  V30 57 H  19.1283 35.8954 88.1831 0
M  V30 58 H  19.1004 37.4305 87.3447 0
M  V30 59 H  19.2829 35.9518 86.4426 0
M  V30 60 H  21.0610 36.8939 84.2992 0
M  V30 61 H  21.7073 35.4875 85.1243 0
M  V30 62 H  23.9625 36.6241 85.2015 0
M  V30 63 H  23.3846 37.7879 84.0444 0
M  V30 64 H  22.8698 35.8497 82.4428 0
M  V30 65 H  23.5391 34.7556 83.5799 0
M  V30 66 H  24.9695 35.9864 81.5880 0
M  V30 67 H  27.0844 35.6325 81.5155 0
M  V30 68 H  29.2829 34.8342 81.3682 0
M  V30 69 H  31.6152 35.1888 81.9019 0
M  V30 70 H  34.0902 37.9466 85.1319 0
M  V30 71 H  32.5374 37.5366 85.8376 0
M  V30 72 H  32.6655 38.8613 84.6768 0
M  V30 73 H  33.4361 36.7056 81.6597 0
M  V30 74 H  33.0866 38.3473 82.1692 0
M  V30 75 H  34.5634 37.5536 82.6990 0
M  V30 76 H  33.3276 34.7557 83.3865 0
M  V30 77 H  34.4384 35.6068 84.4350 0
M  V30 78 H  32.8834 35.0866 85.0527 0
M  V30 79 H  30.4904 38.1476 84.8363 0
M  V30 80 H  28.1729 37.7947 84.3024 0
M  V30 81 H  22.7270 37.4011 86.6233 0
M  V30 END ATOM
M  V30 BEGIN BOND
M  V30 1 2 1 2
M  V30 2 1 1 7
M  V30 3 1 2 3
M  V30 4 1 2 41
M  V30 5 2 3 4
M  V30 6 1 4 5
M  V30 7 1 4 6
M  V30 8 1 5 42
M  V30 9 1 5 43
M  V30 10 2 6 7
M  V30 11 1 6 8
M  V30 12 1 7 11
M  V30 13 1 8 9
M  V30 14 2 8 10
M  V30 15 1 10 11
M  V30 16 1 10 44
M  V30 17 1 11 12
M  V30 18 1 12 13
M  V30 19 1 12 18
M  V30 20 1 12 45
M  V30 21 1 13 14
M  V30 22 1 13 15
M  V30 23 1 13 46
M  V30 24 1 14 47
M  V30 25 1 15 16
M  V30 26 1 15 17
M  V30 27 1 15 48
M  V30 28 1 16 49
M  V30 29 1 17 18
M  V30 30 1 17 19
M  V30 31 1 17 50
M  V30 32 1 19 20
M  V30 33 1 19 51
M  V30 34 1 19 52
M  V30 35 1 20 21
M  V30 36 1 20 24
M  V30 37 1 20 81
M  V30 38 1 21 22
M  V30 39 1 21 23
M  V30 40 1 21 53
M  V30 41 1 22 54
M  V30 42 1 22 55
M  V30 43 1 22 56
M  V30 44 1 23 57
M  V30 45 1 23 58
M  V30 46 1 23 59
M  V30 47 1 24 25
M  V30 48 1 24 60
M  V30 49 1 24 61
M  V30 50 1 25 26
M  V30 51 1 25 62
M  V30 52 1 25 63
M  V30 53 1 26 27
M  V30 54 1 26 64
M  V30 55 1 26 65
M  V30 56 1 27 28
M  V30 57 1 27 66
M  V30 58 2 28 29
M  V30 59 1 28 30
M  V30 60 1 30 31
M  V30 61 1 30 67
M  V30 62 2 31 32
M  V30 63 1 31 40
M  V30 64 1 32 33
M  V30 65 1 32 68
M  V30 66 2 33 34
M  V30 67 1 33 69
M  V30 68 1 34 35
M  V30 69 1 34 39
M  V30 70 1 35 36
M  V30 71 1 35 37
M  V30 72 1 35 38
M  V30 73 1 36 70
M  V30 74 1 36 71
M  V30 75 1 36 72
M  V30 76 1 37 73
M  V30 77 1 37 74
M  V30 78 1 37 75
M  V30 79 1 38 76
M  V30 80 1 38 77
M  V30 81 1 38 78
M  V30 82 2 39 40
M  V30 83 1 39 79
M  V30 84 1 40 80
M  V30 END BOND
M  V30 END CTAB
M  END
> <s_m_entry_id>
1325

> <s_m_entry_name>
result.108

> <s_m_Source_Path>
D:\OneDrive - zju.edu.cn\DOC\A-Finished\LCK_VS\Planet\LCK-8617

> <s_m_Source_File>
glide-dock_SP_top1262_2_pv.maegz

> <i_m_Source_File_Index>
1325

> <PLANET_affinity>
7.068

> <i_lp_mmshare_version>
54117

> <i_f3d_flags>
0

> <s_epik_input>
W05IMl1jMW5bY0hdbmMoYzEyKW4oW2NIXWMyQnIpW0NASF0zW0NASF0oW09IXSlbQ0BIXShbT0hdKVtDQEhdKE8zKVtDSDJdTihbQ0hdKFtDSDNdKVtDSDNdKVtDSDJdW0NIMl1bQ0gyXVtOSF1DKD1PKVtOSF1jNFtjSF1bY0hdYyhDKFtDSDNdKShbQ0gzXSlbQ0gzXSlbY0hdW2NIXTQ=

> <s_epik_cmdline>
J2VwaWtfcHl0aG9uJywgJy1waCcsICc3LjAnLCAnLXRuJywgJzgnLCAnLW1hJywgJzUwMCcsICctaW1hZScsICc8aW5maWxlLm1hZT4nLCAnLW9tYWUnLCAnPG91dGZpbGUubWFlPic=

> <r_epik_Ionization_Penalty>
  0.0097

> <r_epik_Ionization_Penalty_Charging>
  0.0095

> <r_epik_Ionization_Penalty_Neutral>
  0.0003

> <r_epik_State_Penalty>
  0.0072

> <r_epik_Charging_Adjusted_Penalty>
0.0166385

> <i_epik_Tot_Q>
1

> <i_epik_Tot_abs_Q>
1

> <s_epik_Chemistry_Notes>
This compound contains an acetal/aminal-like group ( X-CH(R)-Y where X, Y are N, S, or O) that may be acid/base labile, releasing an aldehyde.

> <s_lp_Force_Field>
S-OPLS

> <r_lp_Energy>
48.5508

> <b_lp_Chiralities_Consistent>
1

> <s_lp_Variant>
NC1=NC=NC2=C1C(Br)=CN2[C@H]3[C@H](O)[C@H](O)[C@@H](CN(CCCNC(NC4=CC=C(C(C)(C)C...-1

> <s_i_glide_gridfile>
glide-grid_1

> <i_i_glide_lignum>
2583

> <i_i_glide_rotatable_bonds>
14

> <r_i_docking_score>
-7.33771641549996

> <r_i_glide_ligand_efficiency>
-0.183442910387499

> <r_i_glide_ligand_efficiency_sa>
-0.627365927930559

> <r_i_glide_ligand_efficiency_ln>
-1.56491897207167

> <r_i_glide_gscore>
-7.34491641549996

> <r_i_glide_lipo>
-2.86654179810356

> <r_i_glide_hbond>
-0.387458293272526

> <r_i_glide_metal>
0

> <r_i_glide_rewards>
-0.729009712977262

> <r_i_glide_evdw>
-48.335391998291

> <r_i_glide_ecoul>
-8.92652988433838

> <r_i_glide_erotb>
0.418117653168621

> <r_i_glide_esite>
-0.0242751817499277

> <r_i_glide_emodel>
-84.087111797712

> <r_i_glide_energy>
-57.2619218826294

> <r_i_glide_einternal>
7.94061517715454

> <i_i_glide_confnum>
264

> <i_i_glide_posenum>
21

> <r_i_glide_eff_state_penalty>
0.0072

> <s_m_subgroup_title>
glide-dock_SP_top1262_2_pv

> <s_m_subgroupid>
glide-dock_SP_top1262_2_pv

> <b_m_subgroup_collapsed>
0

$$$$
ClC1=CC2=C(C=C1)C=CC(/C=C/C3=CC([C@H](SCC4(CC(O[Na])=O)CC4)CCC5=CC=CC=C5C(C)(...
                    3D
 Schrodinger Suite 2021-3.
  0  0  0     0  0            999 V3000
M  V30 BEGIN CTAB
M  V30 COUNTS 76 80 0 0 0
M  V30 BEGIN ATOM
M  V30 1 Cl 34.8832 41.4392 80.8707 0
M  V30 2 C  33.9528 40.0068 81.1236 0
M  V30 3 C  32.8756 40.0159 82.0122 0
M  V30 4 C  34.2934 38.8445 80.4368 0
M  V30 5 C  33.5747 37.6679 80.6277 0
M  V30 6 C  32.4811 37.6443 81.5251 0
M  V30 7 C  32.1220 38.8345 82.2293 0
M  V30 8 C  31.7128 36.4790 81.7535 0
M  V30 9 C  30.6219 36.5369 82.6153 0
M  V30 10 C  30.3176 37.7387 83.2565 0
M  V30 11 N  31.0669 38.8650 83.0946 0
M  V30 12 C  29.1241 37.8005 84.1228 0
M  V30 13 C  28.8363 38.7513 85.0352 0
M  V30 14 C  27.6064 38.7840 85.8469 0
M  V30 15 C  26.3619 38.4327 85.3079 0
M  V30 16 C  25.2043 38.4376 86.0974 0
M  V30 17 C  25.3228 38.7555 87.4573 0
M  V30 18 C  26.5508 39.1250 88.0002 0
M  V30 19 C  27.6834 39.1568 87.1916 0
M  V30 20 C  23.8351 38.1985 85.4361 0 CFG=2
M  V30 21 S  23.1418 39.7829 84.8365 0
M  V30 22 C  23.4802 40.9414 86.2081 0
M  V30 23 C  22.6742 42.2620 86.2758 0
M  V30 24 C  21.3993 42.3341 87.1784 0
M  V30 25 C  21.4359 41.4860 88.4670 0
M  V30 26 O  21.9968 41.9645 89.4792 0 CHG=-1
M  V30 27 O  20.8905 40.3575 88.4433 0
M  V30 28 C  23.4678 43.5555 86.1311 0
M  V30 29 C  22.6242 43.0679 84.9905 0
M  V30 30 C  22.8200 37.4038 86.2988 0
M  V30 31 C  21.7085 36.6713 85.5035 0
M  V30 32 C  20.3353 36.7152 86.1949 0
M  V30 33 C  20.1856 35.8210 87.2608 0
M  V30 34 C  19.0381 35.8226 88.0436 0
M  V30 35 C  18.0384 36.7533 87.8166 0
M  V30 36 C  18.1461 37.6185 86.7430 0
M  V30 37 C  19.2572 37.5949 85.8823 0
M  V30 38 C  19.2087 38.5928 84.7056 0
M  V30 39 C  19.5997 39.9787 85.2255 0
M  V30 40 O  20.0725 38.2887 83.6437 0
M  V30 41 C  17.8294 38.6116 83.9959 0
M  V30 42 H  32.6076 40.9228 82.5373 0
M  V30 43 H  35.1268 38.8522 79.7493 0
M  V30 44 H  33.8415 36.7709 80.0874 0
M  V30 45 H  31.9618 35.5595 81.2433 0
M  V30 46 H  30.0188 35.6531 82.7694 0
M  V30 47 H  28.4220 36.9870 84.0015 0
M  V30 48 H  29.5290 39.5672 85.1885 0
M  V30 49 H  26.2878 38.1916 84.2575 0
M  V30 50 H  24.4522 38.7569 88.0956 0
M  V30 51 H  26.6241 39.3914 89.0444 0
M  V30 52 H  28.6315 39.4437 87.6237 0
M  V30 53 H  24.0301 37.6000 84.5444 0
M  V30 54 H  23.3626 40.3956 87.1359 0
M  V30 55 H  24.5433 41.1775 86.1510 0
M  V30 56 H  21.2449 43.3697 87.4795 0
M  V30 57 H  20.5123 42.0860 86.5984 0
M  V30 58 H  23.1459 44.4423 86.6786 0
M  V30 59 H  24.5535 43.5104 86.0351 0
M  V30 60 H  23.1234 42.6927 84.0977 0
M  V30 61 H  21.6835 43.5564 84.7489 0
M  V30 62 H  23.3420 36.6256 86.8435 0
M  V30 63 H  22.3904 38.0649 87.0551 0
M  V30 64 H  21.7169 36.9443 84.4595 0
M  V30 65 H  21.9930 35.6194 85.4273 0
M  V30 66 H  20.9715 35.1170 87.4980 0
M  V30 67 H  18.9224 35.1077 88.8423 0
M  V30 68 H  17.1700 36.7883 88.4568 0
M  V30 69 H  17.3421 38.3245 86.6009 0
M  V30 70 H  18.8831 40.3448 85.9615 0
M  V30 71 H  20.5576 39.9340 85.7360 0
M  V30 72 H  19.6864 40.7257 84.4405 0
M  V30 73 H  20.9626 38.4975 83.9373 0
M  V30 74 H  17.0513 39.0783 84.6014 0
M  V30 75 H  17.8504 39.1566 83.0537 0
M  V30 76 H  17.5031 37.5982 83.7557 0
M  V30 END ATOM
M  V30 BEGIN BOND
M  V30 1 1 1 2
M  V30 2 2 2 3
M  V30 3 1 2 4
M  V30 4 1 3 7
M  V30 5 1 3 42
M  V30 6 2 4 5
M  V30 7 1 4 43
M  V30 8 1 5 6
M  V30 9 1 5 44
M  V30 10 2 6 7
M  V30 11 1 6 8
M  V30 12 1 7 11
M  V30 13 2 8 9
M  V30 14 1 8 45
M  V30 15 1 9 10
M  V30 16 1 9 46
M  V30 17 2 10 11
M  V30 18 1 10 12
M  V30 19 2 12 13
M  V30 20 1 12 47
M  V30 21 1 13 14
M  V30 22 1 13 48
M  V30 23 2 14 15
M  V30 24 1 14 19
M  V30 25 1 15 16
M  V30 26 1 15 49
M  V30 27 2 16 17
M  V30 28 1 16 20
M  V30 29 1 17 18
M  V30 30 1 17 50
M  V30 31 2 18 19
M  V30 32 1 18 51
M  V30 33 1 19 52
M  V30 34 1 20 21
M  V30 35 1 20 30
M  V30 36 1 20 53
M  V30 37 1 21 22
M  V30 38 1 22 23
M  V30 39 1 22 54
M  V30 40 1 22 55
M  V30 41 1 23 24
M  V30 42 1 23 28
M  V30 43 1 23 29
M  V30 44 1 24 25
M  V30 45 1 24 56
M  V30 46 1 24 57
M  V30 47 1 25 26
M  V30 48 2 25 27
M  V30 49 1 28 29
M  V30 50 1 28 58
M  V30 51 1 28 59
M  V30 52 1 29 60
M  V30 53 1 29 61
M  V30 54 1 30 31
M  V30 55 1 30 62
M  V30 56 1 30 63
M  V30 57 1 31 32
M  V30 58 1 31 64
M  V30 59 1 31 65
M  V30 60 2 32 33
M  V30 61 1 32 37
M  V30 62 1 33 34
M  V30 63 1 33 66
M  V30 64 2 34 35
M  V30 65 1 34 67
M  V30 66 1 35 36
M  V30 67 1 35 68
M  V30 68 2 36 37
M  V30 69 1 36 69
M  V30 70 1 37 38
M  V30 71 1 38 39
M  V30 72 1 38 40
M  V30 73 1 38 41
M  V30 74 1 39 70
M  V30 75 1 39 71
M  V30 76 1 39 72
M  V30 77 1 40 73
M  V30 78 1 41 74
M  V30 79 1 41 75
M  V30 80 1 41 76
M  V30 END BOND
M  V30 END CTAB
M  END
> <s_m_entry_id>
1332

> <s_m_entry_name>
result.1258

> <s_m_Source_Path>
D:\OneDrive - zju.edu.cn\DOC\A-Finished\LCK_VS\Planet\LCK-8617

> <s_m_Source_File>
glide-dock_SP_top1262_2_pv.maegz

> <i_m_Source_File_Index>
1332

> <PLANET_affinity>
7.434

> <i_lp_mmshare_version>
54117

> <i_f3d_flags>
0

> <s_epik_input>
W2NIXTFbY0hdYyhDbClbY0hdYyhjMTIpbmMoW2NIXVtjSF0yKS9bQ0hdPVtDSF0vYzNbY0hdYyhbY0hdW2NIXVtjSF0zKVtDQEhdKFNbQ0gyXUM0KFtDSDJdW0NIMl00KVtDSDJdQyg9TylbT0hdKVtDSDJdW0NIMl1jNVtjSF1bY0hdW2NIXVtjSF1jNUMoW0NIM10pKFtPSF0pW0NIM10=

> <s_epik_cmdline>
J2VwaWtfcHl0aG9uJywgJy1waCcsICc3LjAnLCAnLXRuJywgJzgnLCAnLW1hJywgJzUwMCcsICctaW1hZScsICc8aW5maWxlLm1hZT4nLCAnLW9tYWUnLCAnPG91dGZpbGUubWFlPic=

> <r_epik_Ionization_Penalty>
  0.0059

> <r_epik_Ionization_Penalty_Charging>
  0.0042

> <r_epik_Ionization_Penalty_Neutral>
  0.0017

> <r_epik_State_Penalty>
  0.0000

> <r_epik_Charging_Adjusted_Penalty>
0.00422929

> <i_epik_Tot_Q>
-1

> <i_epik_Tot_abs_Q>
1

> <s_lp_Force_Field>
S-OPLS

> <r_lp_Energy>
41.2257

> <b_lp_Chiralities_Consistent>
1

> <s_lp_Variant>
ClC1=CC2=C(C=C1)C=CC(/C=C/C3=CC([C@H](SCC4(CC(O[Na])=O)CC4)CCC5=CC=CC=C5C(C)(...-1

> <s_i_glide_gridfile>
glide-grid_1

> <i_i_glide_lignum>
2037

> <i_i_glide_rotatable_bonds>
13

> <r_i_docking_score>
-7.33430548545262

> <r_i_glide_ligand_efficiency>
-0.178885499645186

> <r_i_glide_ligand_efficiency_sa>
-0.616836063167454

> <r_i_glide_ligand_efficiency_ln>
-1.55599731618842

> <r_i_glide_gscore>
-7.33430548545262

> <r_i_glide_lipo>
-4.60723168432141

> <r_i_glide_hbond>
-0.2

> <r_i_glide_metal>
0

> <r_i_glide_rewards>
-0.07114399364122

> <r_i_glide_evdw>
-47.1166496276855

> <r_i_glide_ecoul>
-4.0879955291748

> <r_i_glide_erotb>
0.568062309853899

> <r_i_glide_esite>
-0.0549603065833883

> <r_i_glide_emodel>
-68.9268419075867

> <r_i_glide_energy>
-51.2046451568604

> <r_i_glide_einternal>
12.3234224319458

> <i_i_glide_confnum>
255

> <i_i_glide_posenum>
399

> <r_i_glide_eff_state_penalty>
0

> <r_lp_tautomer_probability>
1

> <s_m_subgroup_title>
glide-dock_SP_top1262_2_pv

> <s_m_subgroupid>
glide-dock_SP_top1262_2_pv

> <b_m_subgroup_collapsed>
0

$$$$
O=C(CC[C@H](NC(C1=CC=C(C=C1)C(CC#C)CC2=NC3=C(N=C(N=C3N=C2)N)N)=O)C(O)=O)O
                    3D
 Schrodinger Suite 2021-3.
  0  0  0     0  0            999 V3000
M  V30 BEGIN CTAB
M  V30 COUNTS 56 58 0 0 0
M  V30 BEGIN ATOM
M  V30 1 O  22.4832 41.3539 94.3912 0
M  V30 2 C  23.2462 42.3454 94.4435 0
M  V30 3 O  23.2830 43.1565 95.3933 0 CHG=-1
M  V30 4 C  24.2114 42.6126 93.2796 0
M  V30 5 C  23.7473 42.0271 91.9248 0
M  V30 6 C  24.7235 42.2301 90.7290 0 CFG=1
M  V30 7 C  26.1186 41.5625 91.0440 0
M  V30 8 O  27.0998 42.3393 90.9972 0 CHG=-1
M  V30 9 O  26.0830 40.3465 91.3463 0
M  V30 10 N  24.0557 41.6257 89.5623 0
M  V30 11 C  24.4960 41.4469 88.3021 0
M  V30 12 O  25.5806 41.8558 87.8878 0
M  V30 13 C  23.5450 40.7013 87.3950 0
M  V30 14 C  23.5837 40.9148 86.0114 0
M  V30 15 C  22.7153 40.2259 85.1686 0
M  V30 16 C  21.8073 39.3047 85.6990 0
M  V30 17 C  21.7668 39.0843 87.0764 0
M  V30 18 C  22.6276 39.7764 87.9173 0
M  V30 19 C  20.8600 38.5354 84.7771 0 CFG=2
M  V30 20 C  19.3990 38.9694 85.0670 0
M  V30 21 C  18.4138 38.5859 84.0432 0
M  V30 22 C  17.6108 38.2700 83.1818 0
M  V30 23 C  21.0756 36.9865 84.8322 0
M  V30 24 C  22.4160 36.4872 84.2857 0
M  V30 25 N  23.5429 37.0199 84.8273 0
M  V30 26 C  22.4831 35.5567 83.2435 0
M  V30 27 N  23.6624 35.1631 82.6956 0
M  V30 28 C  24.7930 35.7364 83.1867 0
M  V30 29 C  24.7355 36.6751 84.2600 0
M  V30 30 N  25.9593 35.3883 82.5822 0
M  V30 31 C  27.0684 36.0010 83.0500 0
M  V30 32 N  28.2576 35.6563 82.4435 0
M  V30 33 N  27.1431 36.9114 84.0436 0
M  V30 34 C  25.9788 37.2342 84.6453 0
M  V30 35 N  26.0819 38.1738 85.6654 0
M  V30 36 H  25.1749 42.1911 93.5676 0
M  V30 37 H  24.3653 43.6873 93.1707 0
M  V30 38 H  22.7840 42.4782 91.6784 0
M  V30 39 H  23.5438 40.9602 92.0443 0
M  V30 40 H  24.8375 43.3022 90.5510 0
M  V30 41 H  23.1069 41.3448 89.7468 0
M  V30 42 H  24.2825 41.6204 85.5826 0
M  V30 43 H  22.7580 40.4059 84.1041 0
M  V30 44 H  21.0716 38.3738 87.4986 0
M  V30 45 H  22.5768 39.5702 88.9760 0
M  V30 46 H  21.0798 38.8451 83.7539 0
M  V30 47 H  19.0547 38.5621 86.0186 0
M  V30 48 H  19.3376 40.0553 85.1587 0
M  V30 49 H  16.9045 37.9681 82.4435 0
M  V30 50 H  20.2825 36.5027 84.2619 0
M  V30 51 H  20.9548 36.6190 85.8520 0
M  V30 52 H  21.5936 35.1174 82.8168 0
M  V30 53 H  28.1888 35.1570 81.5622 0
M  V30 54 H  29.0954 36.1399 82.7221 0
M  V30 55 H  25.2445 38.4957 86.1288 0
M  V30 56 H  26.9896 38.5594 85.8774 0
M  V30 END ATOM
M  V30 BEGIN BOND
M  V30 1 2 1 2
M  V30 2 1 2 3
M  V30 3 1 2 4
M  V30 4 1 4 5
M  V30 5 1 4 36
M  V30 6 1 4 37
M  V30 7 1 5 6
M  V30 8 1 5 38
M  V30 9 1 5 39
M  V30 10 1 6 7
M  V30 11 1 6 10
M  V30 12 1 6 40
M  V30 13 1 7 8
M  V30 14 2 7 9
M  V30 15 1 10 11
M  V30 16 1 10 41
M  V30 17 2 11 12
M  V30 18 1 11 13
M  V30 19 2 13 14
M  V30 20 1 13 18
M  V30 21 1 14 15
M  V30 22 1 14 42
M  V30 23 2 15 16
M  V30 24 1 15 43
M  V30 25 1 16 17
M  V30 26 1 16 19
M  V30 27 2 17 18
M  V30 28 1 17 44
M  V30 29 1 18 45
M  V30 30 1 19 20
M  V30 31 1 19 23
M  V30 32 1 19 46
M  V30 33 1 20 21
M  V30 34 1 20 47
M  V30 35 1 20 48
M  V30 36 3 21 22
M  V30 37 1 22 49
M  V30 38 1 23 24
M  V30 39 1 23 50
M  V30 40 1 23 51
M  V30 41 2 24 25
M  V30 42 1 24 26
M  V30 43 1 25 29
M  V30 44 2 26 27
M  V30 45 1 26 52
M  V30 46 1 27 28
M  V30 47 2 28 29
M  V30 48 1 28 30
M  V30 49 1 29 34
M  V30 50 2 30 31
M  V30 51 1 31 32
M  V30 52 1 31 33
M  V30 53 1 32 53
M  V30 54 1 32 54
M  V30 55 2 33 34
M  V30 56 1 34 35
M  V30 57 1 35 55
M  V30 58 1 35 56
M  V30 END BOND
M  V30 END CTAB
M  END
> <s_m_entry_id>
1335

> <s_m_entry_name>
result.5196

> <s_m_Source_Path>
D:\OneDrive - zju.edu.cn\DOC\A-Finished\LCK_VS\Planet\LCK-8617

> <s_m_Source_File>
glide-dock_SP_top1262_2_pv.maegz

> <i_m_Source_File_Index>
1335

> <PLANET_affinity>
8.085

> <i_lp_mmshare_version>
54117

> <i_f3d_flags>
0

> <s_epik_input>
Tz1DKFtPSF0pW0NIMl1bQ0gyXVtDQEBIXShDKD1PKVtPSF0pW05IXUMoPU8pYzFbY0hdW2NIXWMoW2NIXVtjSF0xKVtDQEhdKFtDSDJdQyNbQ0hdKVtDSDJdYyhbY0hdbjIpbmMoYzIzKWMoW05IMl0pbmMobjMpW05IMl0=

> <s_epik_cmdline>
J2VwaWtfcHl0aG9uJywgJy1waCcsICc3LjAnLCAnLXRuJywgJzgnLCAnLW1hJywgJzUwMCcsICctaW1hZScsICc8aW5maWxlLm1hZT4nLCAnLW9tYWUnLCAnPG91dGZpbGUubWFlPic=

> <r_epik_Ionization_Penalty>
  0.0536

> <r_epik_Ionization_Penalty_Charging>
  0.0043

> <r_epik_Ionization_Penalty_Neutral>
  0.0493

> <r_epik_State_Penalty>
  0.0415

> <r_epik_Charging_Adjusted_Penalty>
0.0458414

> <i_epik_Tot_Q>
-2

> <i_epik_Tot_abs_Q>
2

> <s_lp_Force_Field>
S-OPLS

> <r_lp_Energy>
37.4646

> <b_lp_Chiralities_Consistent>
1

> <s_lp_Variant>
O=C(CC[C@H](NC(C1=CC=C(C=C1)C(CC#C)CC2=NC3=C(N=C(N=C3N=C2)N)N)=O)C(O)=O)O-1

> <s_i_glide_gridfile>
glide-grid_1

> <i_i_glide_lignum>
1218

> <i_i_glide_rotatable_bonds>
12

> <r_i_docking_score>
-7.33244333814914

> <r_i_glide_ligand_efficiency>
-0.209498381089975

> <r_i_glide_ligand_efficiency_sa>
-0.685283095610329

> <r_i_glide_ligand_efficiency_ln>
-1.60963404753571

> <r_i_glide_gscore>
-7.37394333814914

> <r_i_glide_lipo>
-2.10782281317686

> <r_i_glide_hbond>
-0.510762601663866

> <r_i_glide_metal>
0

> <r_i_glide_rewards>
-2.01668632097788

> <r_i_glide_evdw>
-44.7533302307129

> <r_i_glide_ecoul>
-7.51881074905396

> <r_i_glide_erotb>
0.626816521563199

> <r_i_glide_esite>
0

> <r_i_glide_emodel>
-76.5869412523603

> <r_i_glide_energy>
-52.2721409797668

> <r_i_glide_einternal>
3.76180171966553

> <i_i_glide_confnum>
537

> <i_i_glide_posenum>
296

> <r_i_glide_eff_state_penalty>
0.0415

> <s_m_subgroup_title>
glide-dock_SP_top1262_2_pv

> <s_m_subgroupid>
glide-dock_SP_top1262_2_pv

> <b_m_subgroup_collapsed>
0

$$$$
O=S(C1=CN2C(C3=CC(N)=NC(F)=C3)=CN=C2C=C1OCC)(C(C)(C)C)=O
                    3D
 Schrodinger Suite 2021-3.
  0  0  0     0  0            999 V3000
M  V30 BEGIN CTAB
M  V30 COUNTS 48 50 0 0 0
M  V30 BEGIN ATOM
M  V30 1 C  30.1422 38.9068 85.5945 0
M  V30 2 C  28.9140 39.8141 85.8155 0
M  V30 3 C  27.9852 39.2595 86.9164 0
M  V30 4 C  29.3770 41.2414 86.1720 0
M  V30 5 S  27.9165 39.9381 84.1841 0
M  V30 6 O  28.8252 40.2895 83.0865 0
M  V30 7 O  26.7460 40.7885 84.4343 0
M  V30 8 C  27.2718 38.2808 83.8640 0
M  V30 9 C  25.9371 38.0299 84.1923 0
M  V30 10 C  28.0437 37.2854 83.2435 0
M  V30 11 O  29.3744 37.5603 82.9940 0
M  V30 12 C  30.2021 36.6628 82.2530 0
M  V30 13 C  30.7083 35.5171 83.1360 0
M  V30 14 C  27.4348 36.0817 82.8513 0
M  V30 15 C  26.0751 35.8711 83.1142 0
M  V30 16 N  25.3567 36.8456 83.8278 0
M  V30 17 N  25.2848 34.8292 82.7687 0
M  V30 18 C  24.1054 35.1568 83.2394 0
M  V30 19 C  24.0778 36.3424 83.9721 0
M  V30 20 C  22.9434 36.9538 84.7203 0
M  V30 21 C  21.6468 36.7935 84.2200 0
M  V30 22 C  20.5785 37.3392 84.9299 0
M  V30 23 N  19.2820 37.2225 84.4451 0
M  V30 24 N  20.7372 37.9937 86.1035 0
M  V30 25 C  21.9947 38.1347 86.5943 0
M  V30 26 F  22.1643 38.7722 87.7747 0
M  V30 27 C  23.1165 37.6336 85.9300 0
M  V30 28 H  30.7179 39.2267 84.7244 0
M  V30 29 H  30.8218 38.9245 86.4437 0
M  V30 30 H  29.8575 37.8708 85.4248 0
M  V30 31 H  27.1055 39.8912 87.0418 0
M  V30 32 H  27.6225 38.2632 86.6671 0
M  V30 33 H  28.4830 39.1971 87.8846 0
M  V30 34 H  28.5300 41.9165 86.3023 0
M  V30 35 H  29.9613 41.2577 87.0932 0
M  V30 36 H  29.9947 41.6660 85.3787 0
M  V30 37 H  25.2950 38.7614 84.6611 0
M  V30 38 H  31.0586 37.2379 81.8995 0
M  V30 39 H  29.7102 36.2942 81.3519 0
M  V30 40 H  31.4264 34.9004 82.5945 0
M  V30 41 H  29.8931 34.8657 83.4488 0
M  V30 42 H  31.1999 35.8997 84.0316 0
M  V30 43 H  27.9834 35.3143 82.3316 0
M  V30 44 H  23.2609 34.4993 83.0940 0
M  V30 45 H  21.4843 36.2712 83.2882 0
M  V30 46 H  19.1200 36.8564 83.5202 0
M  V30 47 H  18.5424 37.6538 84.9797 0
M  V30 48 H  24.0945 37.7521 86.3709 0
M  V30 END ATOM
M  V30 BEGIN BOND
M  V30 1 1 1 2
M  V30 2 1 1 28
M  V30 3 1 1 29
M  V30 4 1 1 30
M  V30 5 1 2 3
M  V30 6 1 2 4
M  V30 7 1 2 5
M  V30 8 1 3 31
M  V30 9 1 3 32
M  V30 10 1 3 33
M  V30 11 1 4 34
M  V30 12 1 4 35
M  V30 13 1 4 36
M  V30 14 2 5 6
M  V30 15 2 5 7
M  V30 16 1 5 8
M  V30 17 2 8 9
M  V30 18 1 8 10
M  V30 19 1 9 16
M  V30 20 1 9 37
M  V30 21 1 10 11
M  V30 22 2 10 14
M  V30 23 1 11 12
M  V30 24 1 12 13
M  V30 25 1 12 38
M  V30 26 1 12 39
M  V30 27 1 13 40
M  V30 28 1 13 41
M  V30 29 1 13 42
M  V30 30 1 14 15
M  V30 31 1 14 43
M  V30 32 1 15 16
M  V30 33 2 15 17
M  V30 34 1 16 19
M  V30 35 1 17 18
M  V30 36 2 18 19
M  V30 37 1 18 44
M  V30 38 1 19 20
M  V30 39 2 20 21
M  V30 40 1 20 27
M  V30 41 1 21 22
M  V30 42 1 21 45
M  V30 43 1 22 23
M  V30 44 2 22 24
M  V30 45 1 23 46
M  V30 46 1 23 47
M  V30 47 1 24 25
M  V30 48 1 25 26
M  V30 49 2 25 27
M  V30 50 1 27 48
M  V30 END BOND
M  V30 END CTAB
M  END
> <s_m_entry_id>
1337

> <s_m_entry_name>
result.7653

> <s_m_Source_Path>
D:\OneDrive - zju.edu.cn\DOC\A-Finished\LCK_VS\Planet\LCK-8617

> <s_m_Source_File>
glide-dock_SP_top1262_2_pv.maegz

> <i_m_Source_File_Index>
1337

> <PLANET_affinity>
7.662

> <i_lp_mmshare_version>
54117

> <i_f3d_flags>
0

> <s_epik_input>
W0NIM11bQ0gyXU9jKFtjSF0xKWMoUyg9TykoPU8pQyhbQ0gzXSkoW0NIM10pW0NIM10pW2NIXW4oYzEyKWMoW2NIXW4yKS1jM1tjSF1jKFtOSDJdKW5jKEYpW2NIXTM=

> <s_epik_cmdline>
J2VwaWtfcHl0aG9uJywgJy1waCcsICc3LjAnLCAnLXRuJywgJzgnLCAnLW1hJywgJzUwMCcsICctaW1hZScsICc8aW5maWxlLm1hZT4nLCAnLW9tYWUnLCAnPG91dGZpbGUubWFlPic=

> <r_epik_Ionization_Penalty>
  0.0055

> <r_epik_Ionization_Penalty_Charging>
  0.0055

> <r_epik_Ionization_Penalty_Neutral>
  0.0000

> <r_epik_State_Penalty>
  0.0040

> <r_epik_Charging_Adjusted_Penalty>
0.00957512

> <i_epik_Tot_Q>
0

> <i_epik_Tot_abs_Q>
0

> <s_lp_Force_Field>
S-OPLS

> <r_lp_Energy>
22.0671

> <b_lp_Chiralities_Consistent>
1

> <s_lp_Variant>
O=S(C1=CN2C(C3=CC(N)=NC(F)=C3)=CN=C2C=C1OCC)(C(C)(C)C)=O-1

> <s_i_glide_gridfile>
glide-grid_1

> <i_i_glide_lignum>
1707

> <i_i_glide_rotatable_bonds>
5

> <r_i_docking_score>
-7.33209341916285

> <r_i_glide_ligand_efficiency>
-0.27155901552455

> <r_i_glide_ligand_efficiency_sa>
-0.814677045678636

> <r_i_glide_ligand_efficiency_ln>
-1.70679046897389

> <r_i_glide_gscore>
-7.33609341916285

> <r_i_glide_lipo>
-2.13034521560503

> <r_i_glide_hbond>
-0.245210424921934

> <r_i_glide_metal>
0

> <r_i_glide_rewards>
-2.3605869070335

> <r_i_glide_evdw>
-37.0074729919434

> <r_i_glide_ecoul>
-7.18838167190552

> <r_i_glide_erotb>
0.380314920057939

> <r_i_glide_esite>
-0.0516348912773278

> <r_i_glide_emodel>
-62.7079613003263

> <r_i_glide_energy>
-44.1958546638489

> <r_i_glide_einternal>
1.56125938892365

> <i_i_glide_confnum>
1

> <i_i_glide_posenum>
87

> <r_i_glide_eff_state_penalty>
0.004

> <r_lp_tautomer_probability>
1

> <s_m_subgroup_title>
glide-dock_SP_top1262_2_pv

> <s_m_subgroupid>
glide-dock_SP_top1262_2_pv

> <b_m_subgroup_collapsed>
0

$$$$
OC1=CC(O)=C2C(OC(C3=CC=C(O)C=C3)=CC2=O)=C1C4=CC(C(OC5=CC(OC)=CC(O)=C56)=CC6=O...
                    3D
 Schrodinger Suite 2021-3.
  0  0  0     0  0            999 V3000
M  V30 BEGIN CTAB
M  V30 COUNTS 64 69 0 0 0
M  V30 BEGIN ATOM
M  V30 1 C  27.6776 40.5724 84.3509 0
M  V30 2 C  28.6999 41.4943 84.5661 0
M  V30 3 C  29.9323 41.0579 85.0474 0
M  V30 4 O  30.9439 41.9566 85.2435 0
M  V30 5 C  30.1519 39.7090 85.3090 0
M  V30 6 C  29.1425 38.7840 85.0611 0
M  V30 7 C  27.8967 39.2096 84.5864 0
M  V30 8 C  26.8332 38.2325 84.2908 0
M  V30 9 C  27.0255 37.0561 83.6668 0
M  V30 10 C  25.9434 36.1242 83.4201 0
M  V30 11 O  26.1200 35.0514 82.8465 0
M  V30 12 O  25.6428 38.6213 84.8132 0
M  V30 13 C  24.5228 37.8459 84.5801 0
M  V30 14 C  24.6043 36.6165 83.8912 0
M  V30 15 C  23.2967 38.3876 85.0014 0
M  V30 16 C  22.1337 37.6578 84.7294 0
M  V30 17 O  20.9033 38.1297 85.0992 0
M  V30 18 C  22.1929 36.4501 84.0454 0
M  V30 19 C  23.4069 35.9374 83.6098 0
M  V30 20 O  23.3683 34.8009 82.8435 0
M  V30 21 C  23.2131 39.7217 85.6774 0
M  V30 22 C  23.5801 39.8415 87.0244 0
M  V30 23 C  23.4193 41.0486 87.7155 0
M  V30 24 C  22.8921 42.1518 87.0445 0
M  V30 25 C  22.5654 42.0637 85.7004 0
M  V30 26 C  22.7420 40.8612 84.9957 0
M  V30 27 O  22.4829 40.7558 83.6432 0
M  V30 28 C  22.3444 41.9566 82.8898 0
M  V30 29 C  23.7880 41.1895 89.1300 0
M  V30 30 O  22.7692 41.7403 89.8342 0
M  V30 31 C  24.9369 40.7538 89.6798 0
M  V30 32 C  25.2018 40.8765 91.1022 0
M  V30 33 O  26.2588 40.5068 91.6050 0
M  V30 34 C  24.0485 41.4443 91.8849 0
M  V30 35 C  22.9030 41.8656 91.1967 0
M  V30 36 C  24.0410 41.5588 93.2841 0
M  V30 37 O  25.1016 41.1566 94.0434 0
M  V30 38 C  22.9313 42.0788 93.9474 0
M  V30 39 C  21.8168 42.5308 93.2461 0
M  V30 40 C  21.8096 42.4145 91.8548 0
M  V30 41 O  20.7859 43.0647 93.9894 0
M  V30 42 C  19.6399 43.5886 93.3297 0
M  V30 43 H  26.7214 40.9144 83.9837 0
M  V30 44 H  28.5348 42.5435 84.3694 0
M  V30 45 H  30.8933 42.6975 84.6154 0
M  V30 46 H  31.1099 39.3807 85.6846 0
M  V30 47 H  29.3307 37.7361 85.2432 0
M  V30 48 H  28.0117 36.8001 83.3116 0
M  V30 49 H  20.9740 39.0024 85.4919 0
M  V30 50 H  21.2745 35.9352 83.8119 0
M  V30 51 H  22.4871 34.4532 82.6623 0
M  V30 52 H  23.9645 38.9769 87.5467 0
M  V30 53 H  22.7456 43.0905 87.5603 0
M  V30 54 H  22.1715 42.9490 85.2239 0
M  V30 55 H  22.4829 41.7605 81.8301 0
M  V30 56 H  21.3490 42.3774 83.0332 0
M  V30 57 H  23.0959 42.7035 83.1541 0
M  V30 58 H  25.6888 40.3044 89.0492 0
M  V30 59 H  24.8829 40.9579 94.9615 0
M  V30 60 H  22.9368 42.1556 95.0240 0
M  V30 61 H  20.9731 42.7512 91.2661 0
M  V30 62 H  18.9516 43.9902 94.0723 0
M  V30 63 H  19.9033 44.4016 92.6508 0
M  V30 64 H  19.1108 42.8130 92.7750 0
M  V30 END ATOM
M  V30 BEGIN BOND
M  V30 1 2 1 2
M  V30 2 1 1 7
M  V30 3 1 1 43
M  V30 4 1 2 3
M  V30 5 1 2 44
M  V30 6 1 3 4
M  V30 7 2 3 5
M  V30 8 1 4 45
M  V30 9 1 5 6
M  V30 10 1 5 46
M  V30 11 2 6 7
M  V30 12 1 6 47
M  V30 13 1 7 8
M  V30 14 2 8 9
M  V30 15 1 8 12
M  V30 16 1 9 10
M  V30 17 1 9 48
M  V30 18 2 10 11
M  V30 19 1 10 14
M  V30 20 1 12 13
M  V30 21 2 13 14
M  V30 22 1 13 15
M  V30 23 1 14 19
M  V30 24 2 15 16
M  V30 25 1 15 21
M  V30 26 1 16 17
M  V30 27 1 16 18
M  V30 28 1 17 49
M  V30 29 2 18 19
M  V30 30 1 18 50
M  V30 31 1 19 20
M  V30 32 1 20 51
M  V30 33 2 21 22
M  V30 34 1 21 26
M  V30 35 1 22 23
M  V30 36 1 22 52
M  V30 37 2 23 24
M  V30 38 1 23 29
M  V30 39 1 24 25
M  V30 40 1 24 53
M  V30 41 2 25 26
M  V30 42 1 25 54
M  V30 43 1 26 27
M  V30 44 1 27 28
M  V30 45 1 28 55
M  V30 46 1 28 56
M  V30 47 1 28 57
M  V30 48 1 29 30
M  V30 49 2 29 31
M  V30 50 1 30 35
M  V30 51 1 31 32
M  V30 52 1 31 58
M  V30 53 2 32 33
M  V30 54 1 32 34
M  V30 55 2 34 35
M  V30 56 1 34 36
M  V30 57 1 35 40
M  V30 58 1 36 37
M  V30 59 2 36 38
M  V30 60 1 37 59
M  V30 61 1 38 39
M  V30 62 1 38 60
M  V30 63 2 39 40
M  V30 64 1 39 41
M  V30 65 1 40 61
M  V30 66 1 41 42
M  V30 67 1 42 62
M  V30 68 1 42 63
M  V30 69 1 42 64
M  V30 END BOND
M  V30 END CTAB
M  END
> <s_m_entry_id>
1340

> <s_m_entry_name>
result.2835

> <s_m_Source_Path>
D:\OneDrive - zju.edu.cn\DOC\A-Finished\LCK_VS\Planet\LCK-8617

> <s_m_Source_File>
glide-dock_SP_top1262_2_pv.maegz

> <i_m_Source_File_Index>
1340

> <PLANET_affinity>
10.29

> <i_lp_mmshare_version>
54117

> <i_f3d_flags>
0

> <s_epik_input>
W09IXWMxW2NIXVtjSF1jKFtjSF1bY0hdMSktYyhvMilbY0hdYyg9TyljKGMyMyljKFtPSF0pW2NIXWMoW09IXSljMy1jNFtjSF1jKFtjSF1bY0hdYzRPW0NIM10pLWMoW2NIXWM1PU8pb2MoYzU2KVtjSF1jKE9bQ0gzXSlbY0hdYzZbT0hd

> <s_epik_cmdline>
J2VwaWtfcHl0aG9uJywgJy1waCcsICc3LjAnLCAnLXRuJywgJzgnLCAnLW1hJywgJzUwMCcsICctaW1hZScsICc8aW5maWxlLm1hZT4nLCAnLW9tYWUnLCAnPG91dGZpbGUubWFlPic=

> <r_epik_Ionization_Penalty>
  0.0531

> <r_epik_Ionization_Penalty_Charging>
  0.0000

> <r_epik_Ionization_Penalty_Neutral>
  0.0531

> <r_epik_State_Penalty>
  0.0401

> <r_epik_Charging_Adjusted_Penalty>
0.04005

> <i_epik_Tot_Q>
0

> <i_epik_Tot_abs_Q>
0

> <s_lp_Force_Field>
S-OPLS

> <r_lp_Energy>
24.8333

> <b_lp_Chiralities_Consistent>
1

> <s_lp_Variant>
OC1=CC(O)=C2C(OC(C3=CC=C(O)C=C3)=CC2=O)=C1C4=CC(C(OC5=CC(OC)=CC(O)=C56)=CC6=O...-1

> <s_i_glide_gridfile>
glide-grid_1

> <i_i_glide_lignum>
218

> <i_i_glide_rotatable_bonds>
9

> <r_i_docking_score>
-7.33074110310461

> <r_i_glide_ligand_efficiency>
-0.174541454835824

> <r_i_glide_ligand_efficiency_sa>
-0.606710746890674

> <r_i_glide_ligand_efficiency_ln>
-1.54733058523418

> <r_i_glide_gscore>
-7.37084110310461

> <r_i_glide_lipo>
-2.92630902906057

> <r_i_glide_hbond>
-0.147899915065056

> <r_i_glide_metal>
0

> <r_i_glide_rewards>
-0.0557893270565764

> <r_i_glide_evdw>
-45.888988494873

> <r_i_glide_ecoul>
-13.6982564926147

> <r_i_glide_erotb>
0.108345066713462

> <r_i_glide_esite>
0

> <r_i_glide_emodel>
-74.8101857706513

> <r_i_glide_energy>
-59.5872449874878

> <r_i_glide_einternal>
19.7469844818115

> <i_i_glide_confnum>
32

> <i_i_glide_posenum>
244

> <r_i_glide_eff_state_penalty>
0.0401

> <r_lp_tautomer_probability>
1

> <s_m_subgroup_title>
glide-dock_SP_top1262_2_pv

> <s_m_subgroupid>
glide-dock_SP_top1262_2_pv

> <b_m_subgroup_collapsed>
0

$$$$
O=C(NC1=CC=C(CN2CCN(CC)CC2)C(C(F)(F)F)=C1)C3=CC=C(C)C(/C=C/C4=CN=C(NC=C5)C5=C...
                    3D
 Schrodinger Suite 2021-3.
  0  0  0     0  0            999 V3000
M  V30 BEGIN CTAB
M  V30 COUNTS 77 81 0 0 0
M  V30 BEGIN ATOM
M  V30 1 C  35.3932 45.8645 81.9736 0
M  V30 2 C  35.7051 45.6512 83.4708 0
M  V30 3 N  35.4924 44.2914 83.9873 0 CFG=1
M  V30 4 C  34.0834 43.8762 83.8880 0
M  V30 5 C  33.8439 42.5279 84.6019 0
M  V30 6 C  36.3435 43.2953 83.3174 0
M  V30 7 C  36.2255 41.9261 84.0225 0
M  V30 8 N  34.7527 41.4532 83.9528 0 CHG=1
M  V30 9 C  34.5866 40.0682 84.6202 0
M  V30 10 C  33.2170 39.4253 84.4016 0
M  V30 11 C  32.8319 38.8356 83.1753 0
M  V30 12 C  33.7469 38.8341 81.9386 0
M  V30 13 F  33.9974 40.0866 81.5591 0
M  V30 14 F  34.9017 38.2278 82.2129 0
M  V30 15 F  33.2018 38.2027 80.8964 0
M  V30 16 C  31.5626 38.2431 83.0822 0
M  V30 17 C  32.3306 39.4022 85.4858 0
M  V30 18 C  31.0700 38.8256 85.3701 0
M  V30 19 C  30.6735 38.2520 84.1553 0
M  V30 20 N  29.4227 37.6509 83.9472 0
M  V30 21 C  28.2459 37.9379 84.5471 0
M  V30 22 O  28.1138 38.7794 85.4373 0
M  V30 23 C  27.0466 37.1587 84.0495 0
M  V30 24 C  27.1121 36.3575 82.9004 0
M  V30 25 C  25.9889 35.6863 82.4433 0
M  V30 26 C  24.7625 35.7985 83.0951 0
M  V30 27 C  23.5727 35.0513 82.4996 0
M  V30 28 C  24.6758 36.5776 84.2666 0
M  V30 29 C  25.8214 37.2367 84.7311 0
M  V30 30 C  23.4244 36.7823 85.0211 0
M  V30 31 C  22.2302 37.0528 84.4618 0
M  V30 32 C  20.9229 37.2281 85.1167 0
M  V30 33 C  19.9593 37.9591 84.4094 0
M  V30 34 N  18.7172 38.2600 84.8531 0
M  V30 35 C  20.5857 36.7186 86.3851 0
M  V30 36 O  21.5040 36.0608 87.1785 0
M  V30 37 C  21.1797 34.7521 87.6303 0
M  V30 38 C  19.2852 36.9729 86.8729 0
M  V30 39 C  18.4330 37.7671 86.0554 0
M  V30 40 C  18.5213 36.6424 88.0398 0
M  V30 41 C  17.3031 37.2768 87.9321 0
M  V30 42 N  17.2614 37.9567 86.7425 0
M  V30 43 H  35.5809 46.9002 81.6927 0
M  V30 44 H  36.0153 45.2436 81.3283 0
M  V30 45 H  34.3506 45.6522 81.7368 0
M  V30 46 H  35.1055 46.3398 84.0654 0
M  V30 47 H  36.7390 45.9338 83.6707 0
M  V30 48 H  33.7839 43.7845 82.8448 0
M  V30 49 H  33.4365 44.6373 84.3298 0
M  V30 50 H  32.8140 42.1977 84.4644 0
M  V30 51 H  34.0702 42.5733 85.6677 0
M  V30 52 H  37.3833 43.6281 83.3502 0
M  V30 53 H  36.0789 43.1967 82.2628 0
M  V30 54 H  36.5141 41.9768 85.0746 0
M  V30 55 H  36.8281 41.1707 83.5183 0
M  V30 56 H  34.8019 40.2254 85.6788 0
M  V30 57 H  35.3841 39.4381 84.2284 0
M  V30 58 H  31.2567 37.7850 82.1503 0
M  V30 59 H  32.6128 39.8365 86.4348 0
M  V30 60 H  30.4240 38.8229 86.2345 0
M  V30 61 H  29.3918 36.9613 83.2164 0
M  V30 62 H  28.0221 36.2487 82.3223 0
M  V30 63 H  26.0827 35.0988 81.5502 0
M  V30 64 H  23.8703 34.3572 81.7206 0
M  V30 65 H  23.0484 34.4652 83.2539 0
M  V30 66 H  22.8530 35.7289 82.0434 0
M  V30 67 H  25.7424 37.8530 85.6179 0
M  V30 68 H  23.5109 36.7008 86.0935 0
M  V30 69 H  22.1968 37.1554 83.3928 0
M  V30 70 H  20.1887 38.3554 83.4312 0
M  V30 71 H  22.0872 34.2868 88.0190 0
M  V30 72 H  20.4550 34.7452 88.4419 0
M  V30 73 H  20.8025 34.1126 86.8331 0
M  V30 74 H  18.8152 36.0357 88.8785 0
M  V30 75 H  16.4630 37.3271 88.6090 0
M  V30 76 H  16.4746 38.5303 86.4695 0
M  V30 77 H  34.4901 41.3734 82.9783 0
M  V30 END ATOM
M  V30 BEGIN BOND
M  V30 1 1 1 2
M  V30 2 1 1 43
M  V30 3 1 1 44
M  V30 4 1 1 45
M  V30 5 1 2 3
M  V30 6 1 2 46
M  V30 7 1 2 47
M  V30 8 1 3 4
M  V30 9 1 3 6
M  V30 10 1 4 5
M  V30 11 1 4 48
M  V30 12 1 4 49
M  V30 13 1 5 8
M  V30 14 1 5 50
M  V30 15 1 5 51
M  V30 16 1 6 7
M  V30 17 1 6 52
M  V30 18 1 6 53
M  V30 19 1 7 8
M  V30 20 1 7 54
M  V30 21 1 7 55
M  V30 22 1 8 9
M  V30 23 1 8 77
M  V30 24 1 9 10
M  V30 25 1 9 56
M  V30 26 1 9 57
M  V30 27 2 10 11
M  V30 28 1 10 17
M  V30 29 1 11 12
M  V30 30 1 11 16
M  V30 31 1 12 13
M  V30 32 1 12 14
M  V30 33 1 12 15
M  V30 34 2 16 19
M  V30 35 1 16 58
M  V30 36 2 17 18
M  V30 37 1 17 59
M  V30 38 1 18 19
M  V30 39 1 18 60
M  V30 40 1 19 20
M  V30 41 1 20 21
M  V30 42 1 20 61
M  V30 43 2 21 22
M  V30 44 1 21 23
M  V30 45 2 23 24
M  V30 46 1 23 29
M  V30 47 1 24 25
M  V30 48 1 24 62
M  V30 49 2 25 26
M  V30 50 1 25 63
M  V30 51 1 26 27
M  V30 52 1 26 28
M  V30 53 1 27 64
M  V30 54 1 27 65
M  V30 55 1 27 66
M  V30 56 2 28 29
M  V30 57 1 28 30
M  V30 58 1 29 67
M  V30 59 2 30 31
M  V30 60 1 30 68
M  V30 61 1 31 32
M  V30 62 1 31 69
M  V30 63 2 32 33
M  V30 64 1 32 35
M  V30 65 1 33 34
M  V30 66 1 33 70
M  V30 67 2 34 39
M  V30 68 1 35 36
M  V30 69 2 35 38
M  V30 70 1 36 37
M  V30 71 1 37 71
M  V30 72 1 37 72
M  V30 73 1 37 73
M  V30 74 1 38 39
M  V30 75 1 38 40
M  V30 76 1 39 42
M  V30 77 2 40 41
M  V30 78 1 40 74
M  V30 79 1 41 42
M  V30 80 1 41 75
M  V30 81 1 42 76
M  V30 END BOND
M  V30 END CTAB
M  END
> <s_m_entry_id>
1342

> <s_m_entry_name>
result.1699

> <s_m_Source_Path>
D:\OneDrive - zju.edu.cn\DOC\A-Finished\LCK_VS\Planet\LCK-8617

> <s_m_Source_File>
glide-dock_SP_top1262_2_pv.maegz

> <i_m_Source_File_Index>
1342

> <PLANET_affinity>
7.278

> <i_lp_mmshare_version>
54117

> <i_f3d_flags>
0

> <s_epik_input>
W0NIM11bQ0gyXU4xW0NIMl1bQ0gyXU4oW0NIMl1bQ0gyXTEpW0NIMl1jMmMoQyhGKShGKUYpW2NIXWMoW2NIXVtjSF0yKVtOSF1DKD1PKWMzW2NIXVtjSF1jKFtDSDNdKWMoW2NIXTMpL1tDSF09W0NIXS9jKGM0T1tDSDNdKVtjSF1uYyhjNDUpW25IXVtjSF1bY0hdNQ==

> <s_epik_cmdline>
J2VwaWtfcHl0aG9uJywgJy1waCcsICc3LjAnLCAnLXRuJywgJzgnLCAnLW1hJywgJzUwMCcsICctaW1hZScsICc8aW5maWxlLm1hZT4nLCAnLW9tYWUnLCAnPG91dGZpbGUubWFlPic=

> <r_epik_Ionization_Penalty>
  0.0558

> <r_epik_Ionization_Penalty_Charging>
  0.0136

> <r_epik_Ionization_Penalty_Neutral>
  0.0422

> <r_epik_State_Penalty>
  0.1471

> <r_epik_Charging_Adjusted_Penalty>
0.160783

> <i_epik_Tot_Q>
1

> <i_epik_Tot_abs_Q>
1

> <s_lp_Force_Field>
S-OPLS

> <r_lp_Energy>
81.1963

> <b_lp_Chiralities_Consistent>
1

> <s_lp_Variant>
O=C(NC1=CC=C(CN2CCN(CC)CC2)C(C(F)(F)F)=C1)C3=CC=C(C)C(/C=C/C4=CN=C(NC=C5)C5=C...-1

> <s_i_glide_gridfile>
glide-grid_1

> <i_i_glide_lignum>
2271

> <i_i_glide_rotatable_bonds>
10

> <r_i_docking_score>
-7.33069572346569

> <r_i_glide_ligand_efficiency>
-0.174540374368231

> <r_i_glide_ligand_efficiency_sa>
-0.606706991156536

> <r_i_glide_ligand_efficiency_ln>
-1.54732100676152

> <r_i_glide_gscore>
-7.47779572346569

> <r_i_glide_lipo>
-3.89707849054094

> <r_i_glide_hbond>
0

> <r_i_glide_metal>
0

> <r_i_glide_rewards>
-0.754692023373275

> <r_i_glide_evdw>
-50.9360198974609

> <r_i_glide_ecoul>
-4.10503911972046

> <r_i_glide_erotb>
0.338587287552156

> <r_i_glide_esite>
-0.00205563427251262

> <r_i_glide_emodel>
-80.6935461220987

> <r_i_glide_energy>
-55.0410590171814

> <r_i_glide_einternal>
8.81188583374023

> <i_i_glide_confnum>
125

> <i_i_glide_posenum>
395

> <r_i_glide_eff_state_penalty>
0.1471

> <s_m_subgroup_title>
glide-dock_SP_top1262_2_pv

> <s_m_subgroupid>
glide-dock_SP_top1262_2_pv

> <b_m_subgroup_collapsed>
0

$$$$
ClC1=CN=CC(Cl)=C1[C@@H](C)OC2=CC=C(NN=C3/C=C/C4=CN(CCO)N=C4)C3=C2
                    3D
 Schrodinger Suite 2021-3.
  0  0  0     0  0            999 V3000
M  V30 BEGIN CTAB
M  V30 COUNTS 49 52 0 0 0
M  V30 BEGIN ATOM
M  V30 1 Cl 26.6502 39.4806 87.3173 0
M  V30 2 C  25.6582 40.4107 86.2413 0
M  V30 3 C  26.2928 41.2173 85.2946 0
M  V30 4 N  25.6221 41.9884 84.4065 0
M  V30 5 C  24.2680 41.9676 84.4499 0
M  V30 6 C  23.5441 41.1879 85.3563 0
M  V30 7 Cl 21.8150 41.2630 85.2969 0
M  V30 8 C  24.2474 40.3795 86.2786 0
M  V30 9 C  23.5144 39.4917 87.3082 0 CFG=1
M  V30 10 C  22.9456 40.3181 88.4695 0
M  V30 11 O  22.4373 38.7398 86.7399 0
M  V30 12 C  22.6581 37.8159 85.7352 0
M  V30 13 C  21.5184 37.2749 85.1420 0
M  V30 14 C  21.5785 36.3575 84.0949 0
M  V30 15 C  23.9281 37.4200 85.2896 0
M  V30 16 C  24.0309 36.5227 84.2158 0
M  V30 17 C  22.8501 35.9956 83.6442 0
M  V30 18 C  25.1043 35.9735 83.4472 0
M  V30 19 N  24.6216 35.1565 82.5387 0
M  V30 20 N  23.2829 35.1571 82.6453 0
M  V30 21 C  26.5125 36.2807 83.5980 0
M  V30 22 C  27.5172 35.8097 82.8424 0
M  V30 23 C  28.9215 36.1092 82.9843 0
M  V30 24 C  29.9745 35.4568 82.3781 0
M  V30 25 N  31.1233 36.0075 82.8714 0
M  V30 26 N  30.8793 37.0454 83.6777 0
M  V30 27 C  29.5671 37.0976 83.7479 0
M  V30 28 C  32.4905 35.6034 82.5711 0
M  V30 29 C  33.2280 36.5892 81.6506 0
M  V30 30 O  32.5159 36.7597 80.4436 0
M  V30 31 H  27.3712 41.2570 85.2377 0
M  V30 32 H  23.7610 42.6087 83.7412 0
M  V30 33 H  24.1918 38.7617 87.7488 0
M  V30 34 H  23.7303 40.8781 88.9767 0
M  V30 35 H  22.1978 41.0319 88.1289 0
M  V30 36 H  22.4702 39.6719 89.2066 0
M  V30 37 H  20.5507 37.5906 85.5020 0
M  V30 38 H  20.6802 35.9634 83.6488 0
M  V30 39 H  24.8265 37.8105 85.7329 0
M  V30 40 H  22.7147 34.5602 82.0504 0
M  V30 41 H  26.7341 36.9621 84.4067 0
M  V30 42 H  27.2946 35.1155 82.0446 0
M  V30 43 H  30.0087 34.6296 81.6855 0
M  V30 44 H  29.0744 37.8332 84.3678 0
M  V30 45 H  32.5161 34.5866 82.1733 0
M  V30 46 H  33.0255 35.5319 83.5198 0
M  V30 47 H  34.2475 36.2602 81.4481 0
M  V30 48 H  33.2709 37.5778 82.1116 0
M  V30 49 H  32.2456 35.8973 80.0989 0
M  V30 END ATOM
M  V30 BEGIN BOND
M  V30 1 1 1 2
M  V30 2 2 2 3
M  V30 3 1 2 8
M  V30 4 1 3 4
M  V30 5 1 3 31
M  V30 6 2 4 5
M  V30 7 1 5 6
M  V30 8 1 5 32
M  V30 9 1 6 7
M  V30 10 2 6 8
M  V30 11 1 8 9
M  V30 12 1 9 10
M  V30 13 1 9 11
M  V30 14 1 9 33
M  V30 15 1 10 34
M  V30 16 1 10 35
M  V30 17 1 10 36
M  V30 18 1 11 12
M  V30 19 2 12 13
M  V30 20 1 12 15
M  V30 21 1 13 14
M  V30 22 1 13 37
M  V30 23 2 14 17
M  V30 24 1 14 38
M  V30 25 2 15 16
M  V30 26 1 15 39
M  V30 27 1 16 17
M  V30 28 1 16 18
M  V30 29 1 17 20
M  V30 30 2 18 19
M  V30 31 1 18 21
M  V30 32 1 19 20
M  V30 33 1 20 40
M  V30 34 2 21 22
M  V30 35 1 21 41
M  V30 36 1 22 23
M  V30 37 1 22 42
M  V30 38 2 23 24
M  V30 39 1 23 27
M  V30 40 1 24 25
M  V30 41 1 24 43
M  V30 42 1 25 26
M  V30 43 1 25 28
M  V30 44 2 26 27
M  V30 45 1 27 44
M  V30 46 1 28 29
M  V30 47 1 28 45
M  V30 48 1 28 46
M  V30 49 1 29 30
M  V30 50 1 29 47
M  V30 51 1 29 48
M  V30 52 1 30 49
M  V30 END BOND
M  V30 END CTAB
M  END
> <s_m_entry_id>
1349

> <s_m_entry_name>
result.994

> <s_m_Source_Path>
D:\OneDrive - zju.edu.cn\DOC\A-Finished\LCK_VS\Planet\LCK-8617

> <s_m_Source_File>
glide-dock_SP_top1262_2_pv.maegz

> <i_m_Source_File_Index>
1349

> <PLANET_affinity>
7.58

> <i_lp_mmshare_version>
54117

> <i_f3d_flags>
0

> <s_epik_input>
Q2xjMVtjSF1uW2NIXWMoQ2wpYzFbQ0BASF0oW0NIM10pT2MoW2NIXTIpW2NIXVtjSF1jKGMyMylbbkhdbmMzL1tDSF09W0NIXS9jNFtjSF1uKG5bY0hdNClbQ0gyXVtDSDJdW09IXQ==

> <s_epik_cmdline>
J2VwaWtfcHl0aG9uJywgJy1waCcsICc3LjAnLCAnLXRuJywgJzgnLCAnLW1hJywgJzUwMCcsICctaW1hZScsICc8aW5maWxlLm1hZT4nLCAnLW9tYWUnLCAnPG91dGZpbGUubWFlPic=

> <r_epik_Ionization_Penalty>
  0.0002

> <r_epik_Ionization_Penalty_Charging>
  0.0000

> <r_epik_Ionization_Penalty_Neutral>
  0.0002

> <r_epik_State_Penalty>
  0.0000

> <r_epik_Charging_Adjusted_Penalty>
0

> <i_epik_Tot_Q>
0

> <i_epik_Tot_abs_Q>
0

> <s_lp_Force_Field>
S-OPLS

> <r_lp_Energy>
30.7736

> <b_lp_Chiralities_Consistent>
1

> <s_lp_Variant>
ClC1=CN=CC(Cl)=C1[C@@H](C)OC2=CC=C(NN=C3/C=C/C4=CN(CCO)N=C4)C3=C2-1

> <s_i_glide_gridfile>
glide-grid_1

> <i_i_glide_lignum>
1817

> <i_i_glide_rotatable_bonds>
8

> <r_i_docking_score>
-7.32568891595223

> <r_i_glide_ligand_efficiency>
-0.244189630531741

> <r_i_glide_ligand_efficiency_sa>
-0.758753956744864

> <r_i_glide_ligand_efficiency_ln>
-1.66447634147815

> <r_i_glide_gscore>
-7.32568891595223

> <r_i_glide_lipo>
-2.31350010071275

> <r_i_glide_hbond>
-0.750939092964043

> <r_i_glide_metal>
0

> <r_i_glide_rewards>
-1.45447260874003

> <r_i_glide_evdw>
-39.1238174438477

> <r_i_glide_ecoul>
-8.97984886169434

> <r_i_glide_erotb>
0.49639108791113

> <r_i_glide_esite>
0

> <r_i_glide_emodel>
-70.8854772527908

> <r_i_glide_energy>
-48.103666305542

> <r_i_glide_einternal>
2.48899745941162

> <i_i_glide_confnum>
114

> <i_i_glide_posenum>
220

> <r_i_glide_eff_state_penalty>
0

> <r_lp_tautomer_probability>
1

> <s_m_subgroup_title>
glide-dock_SP_top1262_2_pv

> <s_m_subgroupid>
glide-dock_SP_top1262_2_pv

> <b_m_subgroup_collapsed>
0

$$$$
O=C(NC1=C2O)/C(C)=C/C=C\[C@H](OC)[C@H](/C(C)=C/[C@@H]([C@H]([C@H](C[C@@H](CC2...
                    3D
 Schrodinger Suite 2021-3.
  0  0  0     0  0            999 V3000
M  V30 BEGIN CTAB
M  V30 COUNTS 87 88 0 0 0
M  V30 BEGIN ATOM
M  V30 1 O  26.0852 34.7402 82.4918 0
M  V30 2 C  25.5993 35.7049 83.0789 0
M  V30 3 N  26.3279 36.7497 83.5355 0
M  V30 4 C  24.1546 35.8491 83.2009 0
M  V30 5 C  23.4093 35.3627 81.9612 0
M  V30 6 C  23.5501 36.4121 84.2764 0
M  V30 7 C  22.1271 36.7360 84.3042 0
M  V30 8 C  21.4405 37.2823 85.3196 0
M  V30 9 C  21.9343 37.5913 86.7191 0 CFG=2
M  V30 10 O  21.0447 36.9672 87.6455 0
M  V30 11 C  21.0559 35.5373 87.6437 0
M  V30 12 C  22.0084 39.1233 86.9868 0 CFG=1
M  V30 13 O  22.0836 39.3661 88.3976 0
M  V30 14 C  21.6840 40.5390 88.9130 0
M  V30 15 O  20.8804 41.3103 88.4040 0
M  V30 16 N  22.3102 40.7524 90.1138 0
M  V30 17 C  23.1784 39.8192 86.2614 0
M  V30 18 C  22.8813 40.2594 84.8297 0
M  V30 19 C  24.3410 40.0975 86.9004 0
M  V30 20 C  25.5760 40.8094 86.3568 0 CFG=1
M  V30 21 C  25.4682 42.3196 86.6441 0
M  V30 22 C  26.9065 40.1699 86.8785 0 CFG=1
M  V30 23 O  26.8519 38.7702 86.6102 0
M  V30 24 C  28.2078 40.8219 86.2822 0 CFG=1
M  V30 25 O  28.4804 42.1178 86.8328 0
M  V30 26 C  28.8045 42.2390 88.2161 0
M  V30 27 C  29.4946 39.9364 86.2698 0
M  V30 28 C  30.5588 40.2713 85.1911 0 CFG=2
M  V30 29 C  31.1627 41.6730 85.3805 0
M  V30 30 C  30.0685 40.0331 83.7369 0
M  V30 31 C  29.5696 38.5911 83.5058 0
M  V30 32 C  28.1892 38.3076 83.5173 0
M  V30 33 C  27.7231 36.9862 83.4175 0
M  V30 34 O  27.2818 39.3446 83.5540 0
M  V30 35 C  30.4873 37.5455 83.2707 0
M  V30 36 C  30.0240 36.2212 83.1714 0
M  V30 37 O  30.8889 35.1572 83.0318 0
M  V30 38 C  28.6610 35.9574 83.2424 0
M  V30 39 N  31.8505 37.8583 83.1065 0
M  V30 40 C  32.3576 37.6162 81.7637 0
M  V30 41 C  33.7508 38.1386 81.4932 0
M  V30 42 C  34.0535 39.0199 80.5253 0
M  V30 43 H  25.8187 37.4539 84.0452 0
M  V30 44 H  23.6841 34.3538 81.7156 0
M  V30 45 H  22.3244 35.3566 82.0305 0
M  V30 46 H  23.6830 35.9567 81.1044 0
M  V30 47 H  24.1592 36.7188 85.1142 0
M  V30 48 H  21.5415 36.6048 83.4111 0
M  V30 49 H  20.3922 37.4870 85.1649 0
M  V30 50 H  22.9311 37.1793 86.8705 0
M  V30 51 H  20.3379 35.1618 88.3725 0
M  V30 52 H  20.7696 35.1241 86.6782 0
M  V30 53 H  22.0419 35.1503 87.9077 0
M  V30 54 H  21.0749 39.5626 86.6280 0
M  V30 55 H  23.0014 40.0896 90.4289 0
M  V30 56 H  22.1402 41.6216 90.5967 0
M  V30 57 H  22.9540 39.4163 84.1453 0
M  V30 58 H  21.8744 40.6714 84.7602 0
M  V30 59 H  23.5598 41.0333 84.4767 0
M  V30 60 H  24.4524 39.7849 87.9288 0
M  V30 61 H  25.5743 40.6901 85.2730 0
M  V30 62 H  24.5139 42.7224 86.2992 0
M  V30 63 H  25.5466 42.5353 87.7091 0
M  V30 64 H  26.2419 42.8852 86.1224 0
M  V30 65 H  26.9343 40.2457 87.9641 0
M  V30 66 H  27.6649 38.3719 86.9250 0
M  V30 67 H  27.9746 41.0380 85.2456 0
M  V30 68 H  28.9737 43.2928 88.4383 0
M  V30 69 H  28.0003 41.9078 88.8708 0
M  V30 70 H  29.7169 41.7116 88.4891 0
M  V30 71 H  29.9694 39.9577 87.2423 0
M  V30 72 H  29.2417 38.8865 86.1366 0
M  V30 73 H  31.3838 39.5784 85.3613 0
M  V30 74 H  30.4250 42.4599 85.2314 0
M  V30 75 H  31.5698 41.7975 86.3839 0
M  V30 76 H  31.9783 41.8516 84.6788 0
M  V30 77 H  30.8760 40.2520 83.0360 0
M  V30 78 H  29.3030 40.7573 83.4669 0
M  V30 79 H  26.3772 39.0737 83.3965 0
M  V30 80 H  30.4831 34.2900 82.9019 0
M  V30 81 H  28.3495 34.9260 83.1878 0
M  V30 82 H  32.0598 38.8002 83.4015 0
M  V30 83 H  31.6838 38.1024 81.0567 0
M  V30 84 H  32.3179 36.5606 81.4917 0
M  V30 85 H  34.5322 37.7583 82.1300 0
M  V30 86 H  33.2938 39.4172 79.8692 0
M  V30 87 H  35.0701 39.3581 80.3772 0
M  V30 END ATOM
M  V30 BEGIN BOND
M  V30 1 2 1 2
M  V30 2 1 2 3
M  V30 3 1 2 4
M  V30 4 1 3 33
M  V30 5 1 3 43
M  V30 6 1 4 5
M  V30 7 2 4 6
M  V30 8 1 5 44
M  V30 9 1 5 45
M  V30 10 1 5 46
M  V30 11 1 6 7
M  V30 12 1 6 47
M  V30 13 2 7 8
M  V30 14 1 7 48
M  V30 15 1 8 9
M  V30 16 1 8 49
M  V30 17 1 9 10
M  V30 18 1 9 12
M  V30 19 1 9 50
M  V30 20 1 10 11
M  V30 21 1 11 51
M  V30 22 1 11 52
M  V30 23 1 11 53
M  V30 24 1 12 13
M  V30 25 1 12 17
M  V30 26 1 12 54
M  V30 27 1 13 14
M  V30 28 2 14 15
M  V30 29 1 14 16
M  V30 30 1 16 55
M  V30 31 1 16 56
M  V30 32 1 17 18
M  V30 33 2 17 19
M  V30 34 1 18 57
M  V30 35 1 18 58
M  V30 36 1 18 59
M  V30 37 1 19 20
M  V30 38 1 19 60
M  V30 39 1 20 21
M  V30 40 1 20 22
M  V30 41 1 20 61
M  V30 42 1 21 62
M  V30 43 1 21 63
M  V30 44 1 21 64
M  V30 45 1 22 23
M  V30 46 1 22 24
M  V30 47 1 22 65
M  V30 48 1 23 66
M  V30 49 1 24 25
M  V30 50 1 24 27
M  V30 51 1 24 67
M  V30 52 1 25 26
M  V30 53 1 26 68
M  V30 54 1 26 69
M  V30 55 1 26 70
M  V30 56 1 27 28
M  V30 57 1 27 71
M  V30 58 1 27 72
M  V30 59 1 28 29
M  V30 60 1 28 30
M  V30 61 1 28 73
M  V30 62 1 29 74
M  V30 63 1 29 75
M  V30 64 1 29 76
M  V30 65 1 30 31
M  V30 66 1 30 77
M  V30 67 1 30 78
M  V30 68 1 31 32
M  V30 69 2 31 35
M  V30 70 2 32 33
M  V30 71 1 32 34
M  V30 72 1 33 38
M  V30 73 1 34 79
M  V30 74 1 35 36
M  V30 75 1 35 39
M  V30 76 1 36 37
M  V30 77 2 36 38
M  V30 78 1 37 80
M  V30 79 1 38 81
M  V30 80 1 39 40
M  V30 81 1 39 82
M  V30 82 1 40 41
M  V30 83 1 40 83
M  V30 84 1 40 84
M  V30 85 2 41 42
M  V30 86 1 41 85
M  V30 87 1 42 86
M  V30 88 1 42 87
M  V30 END BOND
M  V30 END CTAB
M  END
> <s_m_entry_id>
1351

> <s_m_entry_name>
result.6026

> <s_m_Source_Path>
D:\OneDrive - zju.edu.cn\DOC\A-Finished\LCK_VS\Planet\LCK-8617

> <s_m_Source_File>
glide-dock_SP_top1262_2_pv.maegz

> <i_m_Source_File_Index>
1351

> <PLANET_affinity>
8.201

> <i_lp_mmshare_version>
54117

> <i_f3d_flags>
0

> <s_epik_input>
W0NIMl09W0NIXVtDSDJdW05IXWMxYyhbT0hdKVtjSF1jKGMoYzEyKVtPSF0pW05IXUMoPU8pL0MoW0NIM10pPVtDSF1cW0NIXT1bQ0hdL1tDQEhdKE9bQ0gzXSlbQ0BASF0oT0MoPU8pW05IMl0pL0MoW0NIM10pPVtDSF1cW0NAQEhdKFtDSDNdKVtDQEBIXShbT0hdKVtDQEBIXShPW0NIM10pW0NIMl1bQ0BIXShbQ0gzXSlbQ0gyXTI=

> <s_epik_cmdline>
J2VwaWtfcHl0aG9uJywgJy1waCcsICc3LjAnLCAnLXRuJywgJzgnLCAnLW1hJywgJzUwMCcsICctaW1hZScsICc8aW5maWxlLm1hZT4nLCAnLW9tYWUnLCAnPG91dGZpbGUubWFlPic=

> <r_epik_Ionization_Penalty>
  0.0192

> <r_epik_Ionization_Penalty_Charging>
  0.0000

> <r_epik_Ionization_Penalty_Neutral>
  0.0192

> <r_epik_State_Penalty>
  0.0258

> <r_epik_Charging_Adjusted_Penalty>
0.0258498

> <i_epik_Tot_Q>
0

> <i_epik_Tot_abs_Q>
0

> <s_epik_Chemistry_Notes>
This compound has an ester and may undergo hydrolysis at high or low pH.

> <s_lp_Force_Field>
S-OPLS

> <r_lp_Energy>
49.2802

> <b_lp_Chiralities_Consistent>
1

> <s_lp_Variant>
O=C(NC1=C2O)/C(C)=C/C=C\[C@H](OC)[C@H](/C(C)=C/[C@@H]([C@H]([C@H](C[C@@H](CC2...-1

> <s_i_glide_gridfile>
glide-grid_1

> <i_i_glide_lignum>
1078

> <i_i_glide_rotatable_bonds>
10

> <r_i_docking_score>
-7.32499623419946

> <r_i_glide_ligand_efficiency>
-0.174404672242844

> <r_i_glide_ligand_efficiency_sa>
-0.606235286953512

> <r_i_glide_ligand_efficiency_ln>
-1.54611799141317

> <r_i_glide_gscore>
-7.35079623419946

> <r_i_glide_lipo>
-2.74157705499413

> <r_i_glide_hbond>
-0.711805177168463

> <r_i_glide_metal>
0

> <r_i_glide_rewards>
-0.946735790464845

> <r_i_glide_evdw>
-45.8371887207031

> <r_i_glide_ecoul>
-4.76915502548218

> <r_i_glide_erotb>
0.136144028918942

> <r_i_glide_esite>
-0.0795895506334792

> <r_i_glide_emodel>
-72.3695119072759

> <r_i_glide_energy>
-50.6063437461853

> <r_i_glide_einternal>
1.91790211200714

> <i_i_glide_confnum>
3

> <i_i_glide_posenum>
386

> <r_i_glide_eff_state_penalty>
0.0258

> <s_m_subgroup_title>
glide-dock_SP_top1262_2_pv

> <s_m_subgroupid>
glide-dock_SP_top1262_2_pv

> <b_m_subgroup_collapsed>
0

$$$$
O=C(NC(C)(C)C)NC1=NC2=NC(N)=NC=C2C=C1C3=CC(OC)=CC(OC)=C3
                    3D
 Schrodinger Suite 2021-3.
  0  0  0     0  0            999 V3000
M  V30 BEGIN CTAB
M  V30 COUNTS 53 55 0 0 0
M  V30 BEGIN ATOM
M  V30 1 C  25.2493 42.6375 90.0480 0
M  V30 2 C  25.9563 41.3093 89.6992 0
M  V30 3 C  27.3606 41.6486 89.1395 0
M  V30 4 C  26.0837 40.4729 90.9921 0
M  V30 5 N  25.1149 40.6157 88.7124 0
M  V30 6 C  25.3808 39.4981 88.0111 0
M  V30 7 O  26.4514 38.8909 88.0500 0
M  V30 8 N  24.3188 39.1503 87.2600 0
M  V30 9 C  24.2277 38.2186 86.2057 0
M  V30 10 N  25.3781 37.7738 85.6331 0
M  V30 11 C  22.9452 37.8203 85.7538 0
M  V30 12 C  22.8824 36.8836 84.7092 0
M  V30 13 C  24.0699 36.4181 84.1055 0
M  V30 14 C  25.3054 36.9103 84.5980 0
M  V30 15 C  24.1588 35.5248 83.0115 0
M  V30 16 N  25.3376 35.1619 82.4437 0
M  V30 17 C  26.4438 35.7168 82.9980 0
M  V30 18 N  26.4931 36.5640 84.0433 0
M  V30 19 N  27.6715 35.4249 82.4436 0
M  V30 20 C  21.6653 38.3536 86.3193 0
M  V30 21 C  21.5018 39.7193 86.5898 0
M  V30 22 C  20.3320 40.2137 87.1781 0
M  V30 23 O  20.1489 41.5172 87.5908 0
M  V30 24 C  21.2151 42.4525 87.4592 0
M  V30 25 C  19.2731 39.3387 87.3900 0
M  V30 26 C  19.3757 37.9781 87.0737 0
M  V30 27 C  20.5855 37.4983 86.5753 0
M  V30 28 O  18.3493 37.0673 87.2248 0
M  V30 29 C  17.0589 37.5561 87.5803 0
M  V30 30 H  24.2523 42.4719 90.4591 0
M  V30 31 H  25.8125 43.2073 90.7882 0
M  V30 32 H  25.1359 43.2763 89.1705 0
M  V30 33 H  27.9450 40.7558 88.9148 0
M  V30 34 H  27.2928 42.2280 88.2178 0
M  V30 35 H  27.9444 42.2349 89.8489 0
M  V30 36 H  26.4810 39.4770 90.7931 0
M  V30 37 H  26.7532 40.9492 91.7093 0
M  V30 38 H  25.1183 40.3566 91.4848 0
M  V30 39 H  24.2395 41.0756 88.5245 0
M  V30 40 H  23.4460 39.6037 87.4754 0
M  V30 41 H  21.9323 36.5448 84.3180 0
M  V30 42 H  23.2610 35.1042 82.5791 0
M  V30 43 H  28.4586 35.9253 82.8238 0
M  V30 44 H  27.6821 35.1377 81.4662 0
M  V30 45 H  22.2957 40.4068 86.3433 0
M  V30 46 H  20.9357 43.3819 87.9562 0
M  V30 47 H  22.1307 42.0995 87.9331 0
M  V30 48 H  21.4142 42.6822 86.4118 0
M  V30 49 H  18.3662 39.7461 87.8085 0
M  V30 50 H  20.6720 36.4415 86.3671 0
M  V30 51 H  16.3260 36.7558 87.5399 0
M  V30 52 H  17.0628 37.9483 88.5965 0
M  V30 53 H  16.7179 38.3332 86.8936 0
M  V30 END ATOM
M  V30 BEGIN BOND
M  V30 1 1 1 2
M  V30 2 1 1 30
M  V30 3 1 1 31
M  V30 4 1 1 32
M  V30 5 1 2 3
M  V30 6 1 2 4
M  V30 7 1 2 5
M  V30 8 1 3 33
M  V30 9 1 3 34
M  V30 10 1 3 35
M  V30 11 1 4 36
M  V30 12 1 4 37
M  V30 13 1 4 38
M  V30 14 1 5 6
M  V30 15 1 5 39
M  V30 16 2 6 7
M  V30 17 1 6 8
M  V30 18 1 8 9
M  V30 19 1 8 40
M  V30 20 2 9 10
M  V30 21 1 9 11
M  V30 22 1 10 14
M  V30 23 2 11 12
M  V30 24 1 11 20
M  V30 25 1 12 13
M  V30 26 1 12 41
M  V30 27 2 13 14
M  V30 28 1 13 15
M  V30 29 1 14 18
M  V30 30 2 15 16
M  V30 31 1 15 42
M  V30 32 1 16 17
M  V30 33 2 17 18
M  V30 34 1 17 19
M  V30 35 1 19 43
M  V30 36 1 19 44
M  V30 37 2 20 21
M  V30 38 1 20 27
M  V30 39 1 21 22
M  V30 40 1 21 45
M  V30 41 1 22 23
M  V30 42 2 22 25
M  V30 43 1 23 24
M  V30 44 1 24 46
M  V30 45 1 24 47
M  V30 46 1 24 48
M  V30 47 1 25 26
M  V30 48 1 25 49
M  V30 49 2 26 27
M  V30 50 1 26 28
M  V30 51 1 27 50
M  V30 52 1 28 29
M  V30 53 1 29 51
M  V30 54 1 29 52
M  V30 55 1 29 53
M  V30 END BOND
M  V30 END CTAB
M  END
> <s_m_entry_id>
1352

> <s_m_entry_name>
result.4038

> <s_m_Source_Path>
D:\OneDrive - zju.edu.cn\DOC\A-Finished\LCK_VS\Planet\LCK-8617

> <s_m_Source_File>
glide-dock_SP_top1262_2_pv.maegz

> <i_m_Source_File_Index>
1352

> <PLANET_affinity>
7.068

> <i_lp_mmshare_version>
54117

> <i_f3d_flags>
0

> <s_epik_input>
W2NIXTFuYyhbTkgyXSluYyhjMTIpbmMoW05IXUMoPU8pW05IXUMoW0NIM10pKFtDSDNdKVtDSDNdKWMoW2NIXTIpLWMzW2NIXWMoT1tDSDNdKVtjSF1jKFtjSF0zKU9bQ0gzXQ==

> <s_epik_cmdline>
J2VwaWtfcHl0aG9uJywgJy1waCcsICc3LjAnLCAnLXRuJywgJzgnLCAnLW1hJywgJzUwMCcsICctaW1hZScsICc8aW5maWxlLm1hZT4nLCAnLW9tYWUnLCAnPG91dGZpbGUubWFlPic=

> <r_epik_Ionization_Penalty>
  0.0407

> <r_epik_Ionization_Penalty_Charging>
  0.0000

> <r_epik_Ionization_Penalty_Neutral>
  0.0407

> <r_epik_State_Penalty>
  0.0520

> <r_epik_Charging_Adjusted_Penalty>
0.0520358

> <i_epik_Tot_Q>
0

> <i_epik_Tot_abs_Q>
0

> <s_lp_Force_Field>
S-OPLS

> <r_lp_Energy>
36.8104

> <b_lp_Chiralities_Consistent>
1

> <s_lp_Variant>
O=C(NC(C)(C)C)NC1=NC2=NC(N)=NC=C2C=C1C3=CC(OC)=CC(OC)=C3-1

> <s_i_glide_gridfile>
glide-grid_1

> <i_i_glide_lignum>
2587

> <i_i_glide_rotatable_bonds>
7

> <r_i_docking_score>
-7.32493390960474

> <r_i_glide_ligand_efficiency>
-0.252583927917405

> <r_i_glide_ligand_efficiency_sa>
-0.776017850767437

> <r_i_glide_ligand_efficiency_ln>
-1.67722412100199

> <r_i_glide_gscore>
-7.37693390960474

> <r_i_glide_lipo>
-1.58101309070299

> <r_i_glide_hbond>
-0.605990993863728

> <r_i_glide_metal>
0

> <r_i_glide_rewards>
-2.31046912119305

> <r_i_glide_evdw>
-39.4988708496094

> <r_i_glide_ecoul>
-8.02758121490479

> <r_i_glide_erotb>
0.348557192788768

> <r_i_glide_esite>
-0.0489371719175543

> <r_i_glide_emodel>
-65.2995789823897

> <r_i_glide_energy>
-47.5264520645142

> <r_i_glide_einternal>
6.20527648925781

> <i_i_glide_confnum>
8

> <i_i_glide_posenum>
22

> <r_i_glide_eff_state_penalty>
0.052

> <r_lp_tautomer_probability>
1

> <s_m_subgroup_title>
glide-dock_SP_top1262_2_pv

> <s_m_subgroupid>
glide-dock_SP_top1262_2_pv

> <b_m_subgroup_collapsed>
0

$$$$
ClC1=C(OC)C=C(OC)C(Cl)=C1C2=CC3=CN=C(NCC4CN(C(/C(C#N)=C\CC(C)(C)C)=O)CC4)N=C3...
                    3D
 Schrodinger Suite 2021-3.
  0  0  0     0  0            999 V3000
M  V30 BEGIN CTAB
M  V30 COUNTS 73 76 0 0 0
M  V30 BEGIN ATOM
M  V30 1 Cl 21.7449 35.4935 87.6437 0
M  V30 2 C  20.7990 36.6467 86.7601 0
M  V30 3 C  19.4368 36.7709 87.0419 0
M  V30 4 O  18.9080 36.1598 88.1577 0
M  V30 5 C  17.6841 36.7035 88.6493 0
M  V30 6 C  18.6448 37.5567 86.2044 0
M  V30 7 C  19.1894 38.3594 85.2112 0
M  V30 8 O  18.3974 39.1567 84.4032 0
M  V30 9 C  16.9787 39.1587 84.6131 0
M  V30 10 C  20.5815 38.3633 85.0616 0
M  V30 11 Cl 21.3107 39.5558 84.0435 0
M  V30 12 C  21.3884 37.4513 85.7702 0
M  V30 13 C  22.8370 37.3336 85.4614 0
M  V30 14 C  23.2352 36.6097 84.3378 0
M  V30 15 C  23.8008 37.9550 86.2591 0
M  V30 16 C  25.1581 37.8730 85.9463 0
M  V30 17 C  25.5826 37.1881 84.7848 0
M  V30 18 C  24.5991 36.5543 83.9744 0
M  V30 19 N  26.9076 37.1568 84.4517 0
M  V30 20 C  27.2492 36.5282 83.2927 0
M  V30 21 N  26.3814 35.9261 82.4439 0
M  V30 22 C  25.0790 35.9313 82.8044 0
M  V30 23 N  28.5969 36.4029 82.9271 0
M  V30 24 C  29.6809 36.3425 83.9132 0
M  V30 25 C  30.5563 37.6033 84.1609 0 CFG=2
M  V30 26 C  29.8976 38.7169 84.9934 0
M  V30 27 N  30.0720 39.9492 84.2074 0
M  V30 28 C  31.0373 39.7597 83.1123 0
M  V30 29 C  31.0945 38.2509 82.8946 0
M  V30 30 C  29.1446 40.9483 84.1616 0
M  V30 31 O  28.8829 41.5145 83.0981 0
M  V30 32 C  28.5385 41.4036 85.4163 0
M  V30 33 C  28.1754 40.4577 86.4229 0
M  V30 34 N  27.8829 39.7493 87.2907 0
M  V30 35 C  28.3205 42.7150 85.6922 0
M  V30 36 C  28.6197 43.9596 84.8515 0
M  V30 37 C  27.8063 45.2422 85.1781 0
M  V30 38 C  26.2925 44.9674 85.0492 0
M  V30 39 C  28.1997 46.3335 84.1556 0
M  V30 40 C  28.1268 45.7607 86.5994 0
M  V30 41 H  17.4800 36.3344 89.6434 0
M  V30 42 H  17.6967 37.7941 88.7218 0
M  V30 43 H  16.8829 36.4175 87.9771 0
M  V30 44 H  17.5807 37.5682 86.3551 0
M  V30 45 H  16.4830 39.8975 83.9875 0
M  V30 46 H  16.5431 38.1903 84.3780 0
M  V30 47 H  16.7204 39.4330 85.6374 0
M  V30 48 H  22.4997 36.1292 83.7071 0
M  V30 49 H  23.4933 38.5095 87.1344 0
M  V30 50 H  25.8876 38.3507 86.5784 0
M  V30 51 H  24.3854 35.4521 82.1285 0
M  V30 52 H  28.7572 35.9211 82.0529 0
M  V30 53 H  30.3459 35.5464 83.5739 0
M  V30 54 H  29.2834 35.9578 84.8447 0
M  V30 55 H  31.4091 37.2483 84.7446 0
M  V30 56 H  30.4585 38.7734 85.9286 0
M  V30 57 H  28.8522 38.4484 85.1241 0
M  V30 58 H  30.7801 40.2596 82.1764 0
M  V30 59 H  32.0328 40.0440 83.4578 0
M  V30 60 H  30.4903 37.9565 82.0436 0
M  V30 61 H  32.1112 37.9283 82.6643 0
M  V30 62 H  27.8730 42.9342 86.6507 0
M  V30 63 H  28.4788 43.7399 83.7971 0
M  V30 64 H  29.6817 44.1750 84.9678 0
M  V30 65 H  25.7031 45.8635 85.2433 0
M  V30 66 H  25.9503 44.2065 85.7510 0
M  V30 67 H  26.0458 44.6185 84.0461 0
M  V30 68 H  29.2720 46.5354 84.1799 0
M  V30 69 H  27.9551 46.0296 83.1363 0
M  V30 70 H  27.6852 47.2764 84.3460 0
M  V30 71 H  29.1964 45.9363 86.7275 0
M  V30 72 H  27.6158 46.7030 86.8016 0
M  V30 73 H  27.8154 45.0604 87.3749 0
M  V30 END ATOM
M  V30 BEGIN BOND
M  V30 1 1 1 2
M  V30 2 2 2 3
M  V30 3 1 2 12
M  V30 4 1 3 4
M  V30 5 1 3 6
M  V30 6 1 4 5
M  V30 7 1 5 41
M  V30 8 1 5 42
M  V30 9 1 5 43
M  V30 10 2 6 7
M  V30 11 1 6 44
M  V30 12 1 7 8
M  V30 13 1 7 10
M  V30 14 1 8 9
M  V30 15 1 9 45
M  V30 16 1 9 46
M  V30 17 1 9 47
M  V30 18 1 10 11
M  V30 19 2 10 12
M  V30 20 1 12 13
M  V30 21 2 13 14
M  V30 22 1 13 15
M  V30 23 1 14 18
M  V30 24 1 14 48
M  V30 25 2 15 16
M  V30 26 1 15 49
M  V30 27 1 16 17
M  V30 28 1 16 50
M  V30 29 2 17 18
M  V30 30 1 17 19
M  V30 31 1 18 22
M  V30 32 2 19 20
M  V30 33 1 20 21
M  V30 34 1 20 23
M  V30 35 2 21 22
M  V30 36 1 22 51
M  V30 37 1 23 24
M  V30 38 1 23 52
M  V30 39 1 24 25
M  V30 40 1 24 53
M  V30 41 1 24 54
M  V30 42 1 25 26
M  V30 43 1 25 29
M  V30 44 1 25 55
M  V30 45 1 26 27
M  V30 46 1 26 56
M  V30 47 1 26 57
M  V30 48 1 27 28
M  V30 49 1 27 30
M  V30 50 1 28 29
M  V30 51 1 28 58
M  V30 52 1 28 59
M  V30 53 1 29 60
M  V30 54 1 29 61
M  V30 55 2 30 31
M  V30 56 1 30 32
M  V30 57 1 32 33
M  V30 58 2 32 35
M  V30 59 3 33 34
M  V30 60 1 35 36
M  V30 61 1 35 62
M  V30 62 1 36 37
M  V30 63 1 36 63
M  V30 64 1 36 64
M  V30 65 1 37 38
M  V30 66 1 37 39
M  V30 67 1 37 40
M  V30 68 1 38 65
M  V30 69 1 38 66
M  V30 70 1 38 67
M  V30 71 1 39 68
M  V30 72 1 39 69
M  V30 73 1 39 70
M  V30 74 1 40 71
M  V30 75 1 40 72
M  V30 76 1 40 73
M  V30 END BOND
M  V30 END CTAB
M  END
> <s_m_entry_id>
1361

> <s_m_entry_name>
result.1009

> <s_m_Source_Path>
D:\OneDrive - zju.edu.cn\DOC\A-Finished\LCK_VS\Planet\LCK-8617

> <s_m_Source_File>
glide-dock_SP_top1262_2_pv.maegz

> <i_m_Source_File_Index>
1361

> <PLANET_affinity>
7.915

> <i_lp_mmshare_version>
54117

> <i_f3d_flags>
0

> <s_epik_input>
Q2xjMWMoT1tDSDNdKVtjSF1jKE9bQ0gzXSljKENsKWMxLWMoW2NIXVtjSF0yKVtjSF1jKGMyMylbY0hdbmMobjMpW05IXVtDSDJdW0NAQEhdNFtDSDJdTihbQ0gyXVtDSDJdNClDKD1PKS9DKEMjTik9W0NIXVxbQ0gyXUMoW0NIM10pKFtDSDNdKVtDSDNd

> <s_epik_cmdline>
J2VwaWtfcHl0aG9uJywgJy1waCcsICc3LjAnLCAnLXRuJywgJzgnLCAnLW1hJywgJzUwMCcsICctaW1hZScsICc8aW5maWxlLm1hZT4nLCAnLW9tYWUnLCAnPG91dGZpbGUubWFlPic=

> <r_epik_Ionization_Penalty>
  0.0028

> <r_epik_Ionization_Penalty_Charging>
  0.0000

> <r_epik_Ionization_Penalty_Neutral>
  0.0028

> <r_epik_State_Penalty>
  0.0018

> <r_epik_Charging_Adjusted_Penalty>
0.00184016

> <i_epik_Tot_Q>
0

> <i_epik_Tot_abs_Q>
0

> <s_lp_Force_Field>
S-OPLS

> <r_lp_Energy>
53.7758

> <b_lp_Chiralities_Consistent>
1

> <s_lp_Variant>
ClC1=C(OC)C=C(OC)C(Cl)=C1C2=CC3=CN=C(NCC4CN(C(/C(C#N)=C\CC(C)(C)C)=O)CC4)N=C3...-1

> <s_i_glide_gridfile>
glide-grid_1

> <i_i_glide_lignum>
1397

> <i_i_glide_rotatable_bonds>
10

> <r_i_docking_score>
-7.31845022128201

> <r_i_glide_ligand_efficiency>
-0.18296125553205

> <r_i_glide_ligand_efficiency_sa>
-0.625718691497749

> <r_i_glide_ligand_efficiency_ln>
-1.56081005982377

> <r_i_glide_gscore>
-7.32025022128201

> <r_i_glide_lipo>
-3.74988119949907

> <r_i_glide_hbond>
-0.757628420086117

> <r_i_glide_metal>
0

> <r_i_glide_rewards>
0.258647739775392

> <r_i_glide_evdw>
-45.2634658813477

> <r_i_glide_ecoul>
-7.26827669143677

> <r_i_glide_erotb>
0.32965586814778

> <r_i_glide_esite>
-0.0476294118370953

> <r_i_glide_emodel>
-57.9912213181487

> <r_i_glide_energy>
-52.5317425727844

> <r_i_glide_einternal>
18.2752437591553

> <i_i_glide_confnum>
68

> <i_i_glide_posenum>
23

> <r_i_glide_eff_state_penalty>
0.0018

> <r_lp_tautomer_probability>
1

> <s_m_subgroup_title>
glide-dock_SP_top1262_2_pv

> <s_m_subgroupid>
glide-dock_SP_top1262_2_pv

> <b_m_subgroup_collapsed>
0

$$$$
OC1=CC(C(OC[C@@H]2[C@@H]3[C@H](OC(C4=CC(O)=C(O)C(O)=C4)=O)[C@@H](O)[C@H](OC5=...
                    3D
 Schrodinger Suite 2021-3.
  0  0  0     0  0            999 V3000
M  V30 BEGIN CTAB
M  V30 COUNTS 96 102 0 0 0
M  V30 BEGIN ATOM
M  V30 1 O  24.5942 45.8942 85.7746 0
M  V30 2 C  24.3757 45.3445 87.0107 0
M  V30 3 C  25.4343 44.7665 87.6985 0
M  V30 4 C  23.0932 45.3326 87.5559 0
M  V30 5 O  22.0831 45.9445 86.8435 0
M  V30 6 C  22.8739 44.7395 88.8072 0
M  V30 7 O  21.5981 44.7319 89.3275 0
M  V30 8 C  23.9448 44.1601 89.5275 0
M  V30 9 C  25.2397 44.1428 88.9376 0
M  V30 10 C  23.6972 43.5913 90.9128 0
M  V30 11 C  23.1807 42.2738 91.0778 0
M  V30 12 C  22.9803 41.7798 92.3760 0
M  V30 13 C  23.2963 42.5282 93.5024 0
M  V30 14 O  23.1362 41.9529 94.7399 0
M  V30 15 C  23.7888 43.8274 93.3679 0
M  V30 16 O  24.0796 44.5515 94.5141 0
M  V30 17 C  23.9890 44.3643 92.0739 0
M  V30 18 O  24.4614 45.5594 91.9787 0 CHG=-1
M  V30 19 C  22.8814 41.3134 89.9469 0
M  V30 20 O  22.1070 40.3566 90.0450 0
M  V30 21 O  23.7061 41.4752 88.8888 0
M  V30 22 C  24.3710 40.3791 88.2652 0 CFG=2
M  V30 23 C  25.8745 40.7227 88.0957 0 CFG=1
M  V30 24 C  26.6195 41.0413 89.4196 0
M  V30 25 O  26.1360 42.2336 90.0456 0
M  V30 26 C  26.4354 43.4479 89.5295 0
M  V30 27 O  27.6001 43.7937 89.3184 0
M  V30 28 O  26.5306 39.6306 87.4374 0
M  V30 29 C  26.0642 39.4351 86.1227 0 CFG=2
M  V30 30 C  24.6097 38.9654 86.1595 0 CFG=2
M  V30 31 O  24.1351 38.7354 84.8432 0
M  V30 32 C  23.7518 40.0245 86.9018 0 CFG=1
M  V30 33 O  22.4226 39.5342 87.0597 0
M  V30 34 C  21.4681 39.7837 86.1257 0
M  V30 35 O  21.6094 40.5853 85.1973 0
M  V30 36 C  20.2175 39.0023 86.3508 0
M  V30 37 C  20.1915 37.8495 87.1515 0
M  V30 38 C  19.0128 37.1202 87.3019 0
M  V30 39 O  19.0377 35.9654 88.0434 0
M  V30 40 C  17.8342 37.5524 86.6803 0
M  V30 41 O  16.6758 36.8294 86.8439 0
M  V30 42 C  17.8588 38.6935 85.8704 0
M  V30 43 O  16.7305 39.1566 85.2435 0
M  V30 44 C  19.0472 39.3953 85.6983 0
M  V30 45 O  26.8125 38.4299 85.4910 0
M  V30 46 C  27.9443 38.7703 84.7798 0
M  V30 47 C  28.1028 39.9738 84.0913 0
M  V30 48 C  29.3056 40.2993 83.4849 0
M  V30 49 O  29.3372 41.5565 82.9543 0
M  V30 50 C  30.3830 39.3872 83.4642 0
M  V30 51 C  30.1822 38.1397 84.0945 0
M  V30 52 O  31.1389 37.1586 84.1096 0
M  V30 53 C  28.9813 37.8479 84.7341 0
M  V30 54 C  31.7135 39.6970 82.8182 0
M  V30 55 O  32.7481 39.1061 83.1298 0
M  V30 56 C  31.7365 40.6189 81.5847 0
M  V30 57 C  32.7109 40.2217 80.4434 0
M  V30 58 C  34.2117 40.3270 80.7203 0
M  V30 59 C  35.0801 39.4656 80.0424 0
M  V30 60 C  36.4537 39.5466 80.2526 0
M  V30 61 C  36.9616 40.4939 81.1382 0
M  V30 62 C  36.1070 41.3597 81.8154 0
M  V30 63 C  34.7321 41.2775 81.6073 0
M  V30 64 H  23.7456 46.1320 85.3818 0
M  V30 65 H  26.4079 44.7773 87.2277 0
M  V30 66 H  21.1955 45.5414 86.8438 0
M  V30 67 H  20.9553 45.1555 88.7493 0
M  V30 68 H  22.6093 40.7744 92.5240 0
M  V30 69 H  22.9640 41.0110 94.6868 0
M  V30 70 H  24.3896 45.4224 94.2420 0
M  V30 71 H  24.3087 39.5164 88.9191 0
M  V30 72 H  25.9784 41.6037 87.4582 0
M  V30 73 H  26.4853 40.2150 90.1181 0
M  V30 74 H  27.6928 41.1216 89.2393 0
M  V30 75 H  26.1312 40.4025 85.6261 0
M  V30 76 H  24.5810 38.0125 86.6888 0
M  V30 77 H  23.7222 39.5375 84.5121 0
M  V30 78 H  23.7289 40.9465 86.3144 0
M  V30 79 H  21.0902 37.5001 87.6412 0
M  V30 80 H  19.9122 35.7179 88.3489 0
M  V30 81 H  15.9513 37.0956 86.2704 0
M  V30 82 H  15.9514 39.0523 85.8002 0
M  V30 83 H  19.0488 40.2761 85.0716 0
M  V30 84 H  27.3124 40.7050 84.0320 0
M  V30 85 H  30.2293 41.9127 82.8413 0
M  V30 86 H  31.9545 37.4637 83.6970 0
M  V30 87 H  28.8588 36.8957 85.2275 0
M  V30 88 H  30.7429 40.6117 81.1431 0
M  V30 89 H  31.9241 41.6333 81.9177 0
M  V30 90 H  32.4828 39.1976 80.1418 0
M  V30 91 H  32.4979 40.8377 79.5683 0
M  V30 92 H  34.6925 38.7320 79.3512 0
M  V30 93 H  37.1198 38.8757 79.7308 0
M  V30 94 H  38.0276 40.5539 81.3019 0
M  V30 95 H  36.5067 42.0913 82.5024 0
M  V30 96 H  34.0835 41.9567 82.1389 0
M  V30 END ATOM
M  V30 BEGIN BOND
M  V30 1 1 1 2
M  V30 2 1 1 64
M  V30 3 2 2 3
M  V30 4 1 2 4
M  V30 5 1 3 9
M  V30 6 1 3 65
M  V30 7 1 4 5
M  V30 8 2 4 6
M  V30 9 1 5 66
M  V30 10 1 6 7
M  V30 11 1 6 8
M  V30 12 1 7 67
M  V30 13 2 8 9
M  V30 14 1 8 10
M  V30 15 1 9 26
M  V30 16 2 10 11
M  V30 17 1 10 17
M  V30 18 1 11 12
M  V30 19 1 11 19
M  V30 20 2 12 13
M  V30 21 1 12 68
M  V30 22 1 13 14
M  V30 23 1 13 15
M  V30 24 1 14 69
M  V30 25 1 15 16
M  V30 26 2 15 17
M  V30 27 1 16 70
M  V30 28 1 17 18
M  V30 29 2 19 20
M  V30 30 1 19 21
M  V30 31 1 21 22
M  V30 32 1 22 23
M  V30 33 1 22 32
M  V30 34 1 22 71
M  V30 35 1 23 24
M  V30 36 1 23 28
M  V30 37 1 23 72
M  V30 38 1 24 25
M  V30 39 1 24 73
M  V30 40 1 24 74
M  V30 41 1 25 26
M  V30 42 2 26 27
M  V30 43 1 28 29
M  V30 44 1 29 30
M  V30 45 1 29 45
M  V30 46 1 29 75
M  V30 47 1 30 31
M  V30 48 1 30 32
M  V30 49 1 30 76
M  V30 50 1 31 77
M  V30 51 1 32 33
M  V30 52 1 32 78
M  V30 53 1 33 34
M  V30 54 2 34 35
M  V30 55 1 34 36
M  V30 56 2 36 37
M  V30 57 1 36 44
M  V30 58 1 37 38
M  V30 59 1 37 79
M  V30 60 1 38 39
M  V30 61 2 38 40
M  V30 62 1 39 80
M  V30 63 1 40 41
M  V30 64 1 40 42
M  V30 65 1 41 81
M  V30 66 1 42 43
M  V30 67 2 42 44
M  V30 68 1 43 82
M  V30 69 1 44 83
M  V30 70 1 45 46
M  V30 71 2 46 47
M  V30 72 1 46 53
M  V30 73 1 47 48
M  V30 74 1 47 84
M  V30 75 1 48 49
M  V30 76 2 48 50
M  V30 77 1 49 85
M  V30 78 1 50 51
M  V30 79 1 50 54
M  V30 80 1 51 52
M  V30 81 2 51 53
M  V30 82 1 52 86
M  V30 83 1 53 87
M  V30 84 2 54 55
M  V30 85 1 54 56
M  V30 86 1 56 57
M  V30 87 1 56 88
M  V30 88 1 56 89
M  V30 89 1 57 58
M  V30 90 1 57 90
M  V30 91 1 57 91
M  V30 92 2 58 59
M  V30 93 1 58 63
M  V30 94 1 59 60
M  V30 95 1 59 92
M  V30 96 2 60 61
M  V30 97 1 60 93
M  V30 98 1 61 62
M  V30 99 1 61 94
M  V30 100 2 62 63
M  V30 101 1 62 95
M  V30 102 1 63 96
M  V30 END BOND
M  V30 END CTAB
M  END
> <s_m_entry_id>
1377

> <s_m_entry_name>
result.5986

> <s_m_Source_Path>
D:\OneDrive - zju.edu.cn\DOC\A-Finished\LCK_VS\Planet\LCK-8617

> <s_m_Source_File>
glide-dock_SP_top1262_2_pv.maegz

> <i_m_Source_File_Index>
1377

> <PLANET_affinity>
13.302

> <i_lp_mmshare_version>
54117

> <i_f3d_flags>
0

> <s_epik_input>
W09IXWMxYyhbT0hdKWMoW09IXSlbY0hdYyhjMTIpQyg9TylPW0NIMl1bQ0BASF0zW0NAQEhdKE9DKD1PKWM0YzJjKFtPSF0pYyhbT0hdKWMoW2NIXTQpW09IXSlbQ0BIXShPQyg9TyljNVtjSF1jKFtPSF0pYyhbT0hdKWMoW09IXSlbY0hdNSlbQ0BASF0oW09IXSlbQ0BASF0oTzMpT2M2W2NIXWMoW09IXSljKGMoW09IXSlbY0hdNilDKD1PKVtDSDJdW0NIMl1jN1tjSF1bY0hdW2NIXVtjSF1bY0hdNw==

> <s_epik_cmdline>
J2VwaWtfcHl0aG9uJywgJy1waCcsICc3LjAnLCAnLXRuJywgJzgnLCAnLW1hJywgJzUwMCcsICctaW1hZScsICc8aW5maWxlLm1hZT4nLCAnLW9tYWUnLCAnPG91dGZpbGUubWFlPic=

> <r_epik_Ionization_Penalty>
  0.5220

> <r_epik_Ionization_Penalty_Charging>
  0.0682

> <r_epik_Ionization_Penalty_Neutral>
  0.4539

> <r_epik_State_Penalty>
  0.8096

> <r_epik_Charging_Adjusted_Penalty>
0.877756

> <i_epik_Tot_Q>
-1

> <i_epik_Tot_abs_Q>
1

> <s_epik_Chemistry_Notes>
This compound has an ester and may undergo hydrolysis at high or low pH. This compound contains an acetal/aminal-like group ( X-CH(R)-Y where X, Y are N, S, or O) that may be acid/base labile, releasing an aldehyde.

> <s_lp_Force_Field>
S-OPLS

> <r_lp_Energy>
98.9779

> <b_lp_Chiralities_Consistent>
1

> <s_lp_Variant>
OC1=CC(C(OC[C@@H]2[C@@H]3[C@H](OC(C4=CC(O)=C(O)C(O)=C4)=O)[C@@H](O)[C@H](OC5=...-1

> <s_i_glide_gridfile>
glide-grid_1

> <i_i_glide_lignum>
69

> <i_i_glide_rotatable_bonds>
20

> <r_i_docking_score>
-7.31044414805123

> <r_i_glide_ligand_efficiency>
-0.116038796000813

> <r_i_glide_ligand_efficiency_sa>
-0.461725006984992

> <r_i_glide_ligand_efficiency_ln>
-1.4213985316267

> <r_i_glide_gscore>
-8.12004414805123

> <r_i_glide_lipo>
-2.02847249280703

> <r_i_glide_hbond>
-0.743502148530211

> <r_i_glide_metal>
0

> <r_i_glide_rewards>
-0.0514132553299756

> <r_i_glide_evdw>
-56.6085662841797

> <r_i_glide_ecoul>
-16.477970123291

> <r_i_glide_erotb>
0.0151490333152803

> <r_i_glide_esite>
-0.00968145199665986

> <r_i_glide_emodel>
-103.152168609584

> <r_i_glide_energy>
-73.0865364074707

> <r_i_glide_einternal>
12.7448892593384

> <i_i_glide_confnum>
171

> <i_i_glide_posenum>
67

> <r_i_glide_eff_state_penalty>
0.8096

> <r_lp_tautomer_probability>
0.9999

> <s_m_subgroup_title>
glide-dock_SP_top1262_2_pv

> <s_m_subgroupid>
glide-dock_SP_top1262_2_pv

> <b_m_subgroup_collapsed>
0

$$$$
O=C(C1=CC=CC=C1C2=C3C=CC(N)=CC3=[O+]C4=C2C=CC(N)=C4)OC.[Cl-]
                    3D
 Schrodinger Suite 2021-3.
  0  0  0     0  0            999 V3000
M  V30 BEGIN CTAB
M  V30 COUNTS 43 46 0 0 0
M  V30 BEGIN ATOM
M  V30 1 C  25.7378 39.1640 88.0377 0
M  V30 2 O  25.2085 38.3566 86.9949 0
M  V30 3 C  25.9852 37.9566 85.9624 0
M  V30 4 O  27.1900 38.2130 85.8930 0
M  V30 5 C  25.2616 37.1066 84.9393 0
M  V30 6 C  26.0771 36.3447 84.0809 0
M  V30 7 C  25.5389 35.5051 83.1119 0
M  V30 8 C  24.1613 35.4058 82.9753 0
M  V30 9 C  23.3335 36.1654 83.7941 0
M  V30 10 C  23.8472 37.0497 84.7589 0
M  V30 11 C  22.8431 37.9336 85.4542 0
M  V30 12 C  22.9032 39.3569 85.2999 0
M  V30 13 C  23.8991 40.0631 84.5750 0
M  V30 14 C  23.9169 41.4537 84.5624 0
M  V30 15 C  22.9421 42.1760 85.2381 0
M  V30 16 N  23.0127 43.5566 85.2437 0
M  V30 17 C  21.9085 41.5341 85.9055 0
M  V30 18 C  21.8948 40.1282 85.9295 0
M  V30 19 O  20.8914 39.5517 86.5801 0 CHG=1
M  V30 20 C  20.7947 38.2353 86.7265 0
M  V30 21 C  21.7797 37.3535 86.2159 0
M  V30 22 C  19.6710 37.7698 87.4234 0
M  V30 23 C  19.5618 36.4116 87.6798 0
M  V30 24 N  18.4832 35.9566 88.4204 0
M  V30 25 C  20.5349 35.5185 87.2432 0
M  V30 26 C  21.6278 35.9681 86.5042 0
M  V30 27 H  24.9716 39.3481 88.7918 0
M  V30 28 H  26.0722 40.1279 87.6489 0
M  V30 29 H  26.5844 38.6753 88.5237 0
M  V30 30 H  27.1560 36.3782 84.1607 0
M  V30 31 H  26.1972 34.9307 82.4747 0
M  V30 32 H  23.7264 34.7566 82.2285 0
M  V30 33 H  22.2661 36.0990 83.6337 0
M  V30 34 H  24.6722 39.5287 84.0446 0
M  V30 35 H  24.7026 41.9700 84.0296 0
M  V30 36 H  23.5844 43.9880 84.5290 0
M  V30 37 H  22.1933 44.0755 85.5414 0
M  V30 38 H  21.1334 42.0876 86.4171 0
M  V30 39 H  18.9337 38.4782 87.7725 0
M  V30 40 H  17.7529 36.6006 88.6914 0
M  V30 41 H  18.4177 34.9752 88.6534 0
M  V30 42 H  20.4446 34.4621 87.4571 0
M  V30 43 H  22.3602 35.2551 86.1608 0
M  V30 END ATOM
M  V30 BEGIN BOND
M  V30 1 1 1 2
M  V30 2 1 1 27
M  V30 3 1 1 28
M  V30 4 1 1 29
M  V30 5 1 2 3
M  V30 6 2 3 4
M  V30 7 1 3 5
M  V30 8 2 5 6
M  V30 9 1 5 10
M  V30 10 1 6 7
M  V30 11 1 6 30
M  V30 12 2 7 8
M  V30 13 1 7 31
M  V30 14 1 8 9
M  V30 15 1 8 32
M  V30 16 2 9 10
M  V30 17 1 9 33
M  V30 18 1 10 11
M  V30 19 1 11 12
M  V30 20 2 11 21
M  V30 21 2 12 13
M  V30 22 1 12 18
M  V30 23 1 13 14
M  V30 24 1 13 34
M  V30 25 2 14 15
M  V30 26 1 14 35
M  V30 27 1 15 16
M  V30 28 1 15 17
M  V30 29 1 16 36
M  V30 30 1 16 37
M  V30 31 2 17 18
M  V30 32 1 17 38
M  V30 33 1 18 19
M  V30 34 2 19 20
M  V30 35 1 20 21
M  V30 36 1 20 22
M  V30 37 1 21 26
M  V30 38 2 22 23
M  V30 39 1 22 39
M  V30 40 1 23 24
M  V30 41 1 23 25
M  V30 42 1 24 40
M  V30 43 1 24 41
M  V30 44 2 25 26
M  V30 45 1 25 42
M  V30 46 1 26 43
M  V30 END BOND
M  V30 END CTAB
M  END
> <s_m_entry_id>
1379

> <s_m_entry_name>
result.5623

> <s_m_Source_Path>
D:\OneDrive - zju.edu.cn\DOC\A-Finished\LCK_VS\Planet\LCK-8617

> <s_m_Source_File>
glide-dock_SP_top1262_2_pv.maegz

> <i_m_Source_File_Index>
1379

> <PLANET_affinity>
7.021

> <i_lp_mmshare_version>
54117

> <i_f3d_flags>
0

> <s_epik_input>
W0NIM11PQyg9TyljMVtjSF1bY0hdW2NIXVtjSF1jMS1jMmMoW2NIXVtjSF1jKFtjSF0zKVtOSDJdKWMzW28rXWMoYzI0KVtjSF1jKFtOSDJdKVtjSF1bY0hdNA==

> <s_epik_cmdline>
J2VwaWtfcHl0aG9uJywgJy1waCcsICc3LjAnLCAnLXRuJywgJzgnLCAnLW1hJywgJzUwMCcsICctaW1hZScsICc8aW5maWxlLm1hZT4nLCAnLW9tYWUnLCAnPG91dGZpbGUubWFlPic=

> <r_epik_Ionization_Penalty>
  0.1175

> <r_epik_Ionization_Penalty_Charging>
  0.1174

> <r_epik_Ionization_Penalty_Neutral>
  0.0000

> <r_epik_State_Penalty>
  0.0001

> <r_epik_Charging_Adjusted_Penalty>
0.117571

> <i_epik_Tot_Q>
1

> <i_epik_Tot_abs_Q>
1

> <s_epik_Chemistry_Notes>
This compound has an ester and may undergo hydrolysis at high or low pH.

> <s_lp_Force_Field>
S-OPLS

> <r_lp_Energy>
32.5288

> <b_lp_Chiralities_Consistent>
1

> <s_lp_Variant>
O=C(C1=CC=CC=C1C2=C3C=CC(N)=CC3=[O+]C4=C2C=CC(N)=C4)OC.[Cl-]-1

> <s_i_glide_gridfile>
glide-grid_1

> <i_i_glide_lignum>
2687

> <i_i_glide_rotatable_bonds>
3

> <r_i_docking_score>
-7.30857504552986

> <r_i_glide_ligand_efficiency>
-0.281099040212687

> <r_i_glide_ligand_efficiency_sa>
-0.832754800558772

> <r_i_glide_ligand_efficiency_ln>
-1.71639486805195

> <r_i_glide_gscore>
-7.30867504552986

> <r_i_glide_lipo>
-3.29621267022529

> <r_i_glide_hbond>
-0.125365878203046

> <r_i_glide_metal>
0

> <r_i_glide_rewards>
-1.44401701381528

> <r_i_glide_evdw>
-32.4332580566406

> <r_i_glide_ecoul>
-7.12960577011108

> <r_i_glide_erotb>
0.318557366187213

> <r_i_glide_esite>
-0.070533081124761

> <r_i_glide_emodel>
-56.7460222511944

> <r_i_glide_energy>
-39.5628638267517

> <r_i_glide_einternal>
2.56746983528137

> <i_i_glide_confnum>
2

> <i_i_glide_posenum>
58

> <r_i_glide_eff_state_penalty>
0.0001

> <s_m_subgroup_title>
glide-dock_SP_top1262_2_pv

> <s_m_subgroupid>
glide-dock_SP_top1262_2_pv

> <b_m_subgroup_collapsed>
0

$$$$
NC1=NC(N2CCN(C(NC3=CC=C(OC)C=C3C)=O)C[C@@H]2C)=C4C(N(C)N=C4)=N1
                    3D
 Schrodinger Suite 2021-3.
  0  0  0     0  0            999 V3000
M  V30 BEGIN CTAB
M  V30 COUNTS 56 59 0 0 0
M  V30 BEGIN ATOM
M  V30 1 C  29.6985 35.7784 82.9838 0
M  V30 2 N  30.9916 35.7419 82.7804 0
M  V30 3 N  31.4614 36.9939 82.9500 0
M  V30 4 C  32.8684 37.2588 82.7059 0
M  V30 5 C  30.4426 37.8814 83.2414 0
M  V30 6 C  29.2605 37.1055 83.2926 0
M  V30 7 N  30.5141 39.2076 83.4060 0
M  V30 8 C  29.3126 39.7758 83.6636 0
M  V30 9 N  29.2832 41.1570 83.7469 0
M  V30 10 N  28.1210 39.1526 83.8032 0
M  V30 11 C  28.0773 37.8064 83.6096 0
M  V30 12 N  26.8360 37.1822 83.7185 0
M  V30 13 C  26.4902 35.9795 82.9342 0
M  V30 14 C  24.9671 35.6820 82.7943 0
M  V30 15 N  24.2481 35.9561 84.0560 0
M  V30 16 C  25.0896 36.1865 85.2451 0
M  V30 17 C  25.9999 37.3995 84.9215 0 CFG=2
M  V30 18 C  25.1671 38.7029 84.8932 0
M  V30 19 C  22.8898 36.0644 84.0517 0
M  V30 20 O  22.2140 35.9566 83.0260 0
M  V30 21 N  22.3299 36.3182 85.2560 0
M  V30 22 C  21.0214 36.7442 85.5184 0
M  V30 23 C  20.3724 37.6417 84.6645 0
M  V30 24 C  19.0915 38.0879 84.9568 0
M  V30 25 C  18.4340 37.6534 86.1169 0
M  V30 26 O  17.1547 38.0292 86.4615 0
M  V30 27 C  16.4797 38.9788 85.6434 0
M  V30 28 C  19.0919 36.7729 86.9786 0
M  V30 29 C  20.3768 36.3051 86.6886 0
M  V30 30 C  21.0245 35.2879 87.6224 0
M  V30 31 H  29.1155 34.8733 82.9032 0
M  V30 32 H  33.1698 38.1669 83.2313 0
M  V30 33 H  33.4739 36.4244 83.0649 0
M  V30 34 H  33.0263 37.3901 81.6344 0
M  V30 35 H  30.1430 41.6885 83.6457 0
M  V30 36 H  28.4316 41.5970 84.0586 0
M  V30 37 H  26.9151 35.1466 83.4938 0
M  V30 38 H  26.9640 36.0117 81.9527 0
M  V30 39 H  24.8163 34.6536 82.4669 0
M  V30 40 H  24.5825 36.3562 82.0291 0
M  V30 41 H  24.5484 36.3325 86.1792 0
M  V30 42 H  25.6828 35.2808 85.3606 0
M  V30 43 H  26.6938 37.4633 85.7610 0
M  V30 44 H  24.5654 38.8038 85.7974 0
M  V30 45 H  25.7911 39.5922 84.8264 0
M  V30 46 H  24.4865 38.7256 84.0429 0
M  V30 47 H  22.9222 36.2363 86.0661 0
M  V30 48 H  20.8599 38.0051 83.7709 0
M  V30 49 H  18.6278 38.7702 84.2636 0
M  V30 50 H  15.4756 39.1533 86.0302 0
M  V30 51 H  16.3835 38.6253 84.6158 0
M  V30 52 H  16.9826 39.9439 85.6394 0
M  V30 53 H  18.5792 36.4345 87.8669 0
M  V30 54 H  21.2869 34.3858 87.0663 0
M  V30 55 H  21.9472 35.6885 88.0390 0
M  V30 56 H  20.3657 34.9899 88.4411 0
M  V30 END ATOM
M  V30 BEGIN BOND
M  V30 1 2 1 2
M  V30 2 1 1 6
M  V30 3 1 1 31
M  V30 4 1 2 3
M  V30 5 1 3 4
M  V30 6 1 3 5
M  V30 7 1 4 32
M  V30 8 1 4 33
M  V30 9 1 4 34
M  V30 10 2 5 6
M  V30 11 1 5 7
M  V30 12 1 6 11
M  V30 13 2 7 8
M  V30 14 1 8 9
M  V30 15 1 8 10
M  V30 16 1 9 35
M  V30 17 1 9 36
M  V30 18 2 10 11
M  V30 19 1 11 12
M  V30 20 1 12 13
M  V30 21 1 12 17
M  V30 22 1 13 14
M  V30 23 1 13 37
M  V30 24 1 13 38
M  V30 25 1 14 15
M  V30 26 1 14 39
M  V30 27 1 14 40
M  V30 28 1 15 16
M  V30 29 1 15 19
M  V30 30 1 16 17
M  V30 31 1 16 41
M  V30 32 1 16 42
M  V30 33 1 17 18
M  V30 34 1 17 43
M  V30 35 1 18 44
M  V30 36 1 18 45
M  V30 37 1 18 46
M  V30 38 2 19 20
M  V30 39 1 19 21
M  V30 40 1 21 22
M  V30 41 1 21 47
M  V30 42 2 22 23
M  V30 43 1 22 29
M  V30 44 1 23 24
M  V30 45 1 23 48
M  V30 46 2 24 25
M  V30 47 1 24 49
M  V30 48 1 25 26
M  V30 49 1 25 28
M  V30 50 1 26 27
M  V30 51 1 27 50
M  V30 52 1 27 51
M  V30 53 1 27 52
M  V30 54 2 28 29
M  V30 55 1 28 53
M  V30 56 1 29 30
M  V30 57 1 30 54
M  V30 58 1 30 55
M  V30 59 1 30 56
M  V30 END BOND
M  V30 END CTAB
M  END
> <s_m_entry_id>
1380

> <s_m_entry_name>
result.4451

> <s_m_Source_Path>
D:\OneDrive - zju.edu.cn\DOC\A-Finished\LCK_VS\Planet\LCK-8617

> <s_m_Source_File>
glide-dock_SP_top1262_2_pv.maegz

> <i_m_Source_File_Index>
1380

> <PLANET_affinity>
7.644

> <i_lp_mmshare_version>
54117

> <i_f3d_flags>
0

> <s_epik_input>
W0NIM11uMW5bY0hdYyhjMTIpYyhuYyhuMilbTkgyXSlOM1tDSDJdW0NIMl1OKFtDSDJdW0NAQEhdM1tDSDNdKUMoPU8pW05IXWM0W2NIXVtjSF1jKE9bQ0gzXSlbY0hdYzRbQ0gzXQ==

> <s_epik_cmdline>
J2VwaWtfcHl0aG9uJywgJy1waCcsICc3LjAnLCAnLXRuJywgJzgnLCAnLW1hJywgJzUwMCcsICctaW1hZScsICc8aW5maWxlLm1hZT4nLCAnLW9tYWUnLCAnPG91dGZpbGUubWFlPic=

> <r_epik_Ionization_Penalty>
  0.0020

> <r_epik_Ionization_Penalty_Charging>
  0.0000

> <r_epik_Ionization_Penalty_Neutral>
  0.0020

> <r_epik_State_Penalty>
  0.0008

> <r_epik_Charging_Adjusted_Penalty>
0.00082514

> <i_epik_Tot_Q>
0

> <i_epik_Tot_abs_Q>
0

> <s_lp_Force_Field>
S-OPLS

> <r_lp_Energy>
55.2854

> <b_lp_Chiralities_Consistent>
1

> <s_lp_Variant>
NC1=NC(N2CCN(C(NC3=CC=C(OC)C=C3C)=O)C[C@@H]2C)=C4C(N(C)N=C4)=N1-1

> <s_i_glide_gridfile>
glide-grid_1

> <i_i_glide_lignum>
1739

> <i_i_glide_rotatable_bonds>
5

> <r_i_docking_score>
-7.30765985804337

> <r_i_glide_ligand_efficiency>
-0.243588661934779

> <r_i_glide_ligand_efficiency_sa>
-0.756886607587443

> <r_i_glide_ligand_efficiency_ln>
-1.66037994307893

> <r_i_glide_gscore>
-7.30845985804337

> <r_i_glide_lipo>
-3.25688530332031

> <r_i_glide_hbond>
-0.0641043020672138

> <r_i_glide_metal>
0

> <r_i_glide_rewards>
-1.99157008388701

> <r_i_glide_evdw>
-46.2366065979004

> <r_i_glide_ecoul>
-0.46406888961792

> <r_i_glide_erotb>
0.467701765555866

> <r_i_glide_esite>
-0.0821612709869947

> <r_i_glide_emodel>
-63.7775946662573

> <r_i_glide_energy>
-46.7006754875183

> <r_i_glide_einternal>
7.83839416503906

> <i_i_glide_confnum>
353

> <i_i_glide_posenum>
103

> <r_i_glide_eff_state_penalty>
0.0008

> <r_lp_tautomer_probability>
1

> <s_m_subgroup_title>
glide-dock_SP_top1262_2_pv

> <s_m_subgroupid>
glide-dock_SP_top1262_2_pv

> <b_m_subgroup_collapsed>
0

$$$$
O=C(NC1=CC=CC(C(F)(F)F)=C1)NC2=C3C=CC=CC3=C(C4=C5C(N)=NC=CN5C(C(C)(C)C)=N4)C=C2
                    3D
 Schrodinger Suite 2021-3.
  0  0  0     0  0            999 V3000
M  V30 BEGIN CTAB
M  V30 COUNTS 63 67 0 0 0
M  V30 BEGIN ATOM
M  V30 1 F  37.7679 43.4836 82.0893 0
M  V30 2 C  36.6142 43.8317 82.6627 0
M  V30 3 F  35.7874 44.2524 81.7032 0
M  V30 4 F  36.8476 44.8450 83.4959 0
M  V30 5 C  36.0064 42.6705 83.4495 0
M  V30 6 C  34.6216 42.5984 83.6446 0
M  V30 7 C  36.8191 41.6606 83.9788 0
M  V30 8 C  36.2560 40.5988 84.6862 0
M  V30 9 C  34.8751 40.5295 84.8685 0
M  V30 10 C  34.0454 41.5317 84.3414 0
M  V30 11 N  32.6447 41.5565 84.4435 0
M  V30 12 C  31.7885 40.6270 84.9027 0
M  V30 13 O  32.1044 39.5573 85.4219 0
M  V30 14 N  30.5298 41.0469 84.6728 0
M  V30 15 C  29.2991 40.3666 84.8184 0
M  V30 16 C  29.2204 38.9777 84.9743 0
M  V30 17 C  27.9992 38.3273 85.0403 0
M  V30 18 C  26.7965 39.0183 84.9329 0
M  V30 19 C  26.8220 40.4440 84.7777 0
M  V30 20 C  28.0859 41.1263 84.7314 0
M  V30 21 C  25.6315 41.2174 84.6400 0
M  V30 22 C  25.6793 42.5983 84.4955 0
M  V30 23 C  26.8958 43.2609 84.4763 0
M  V30 24 C  28.0832 42.5483 84.5861 0
M  V30 25 C  25.5396 38.2019 84.9350 0
M  V30 26 N  24.5425 38.4680 85.7522 0
M  V30 27 C  23.5205 37.6793 85.4681 0
M  V30 28 C  22.1342 37.7706 86.1493 0
M  V30 29 C  22.1440 38.8360 87.2769 0
M  V30 30 C  21.7326 36.4223 86.7989 0
M  V30 31 C  21.0638 38.2023 85.1181 0
M  V30 32 N  23.8576 36.8084 84.4436 0
M  V30 33 C  25.1986 37.0952 84.1080 0
M  V30 34 C  23.1469 35.8473 83.7675 0
M  V30 35 C  23.7899 35.1361 82.7679 0
M  V30 36 N  25.0817 35.3362 82.4434 0
M  V30 37 C  25.7690 36.3013 83.0891 0
M  V30 38 N  27.0748 36.4675 82.6636 0
M  V30 39 H  33.9868 43.3773 83.2433 0
M  V30 40 H  37.8911 41.6939 83.8455 0
M  V30 41 H  36.8901 39.8245 85.0925 0
M  V30 42 H  34.4770 39.6926 85.4201 0
M  V30 43 H  32.2163 42.3833 84.0391 0
M  V30 44 H  30.4493 41.9917 84.3183 0
M  V30 45 H  30.1052 38.3638 85.0307 0
M  V30 46 H  27.9944 37.2539 85.1701 0
M  V30 47 H  24.6651 40.7382 84.6374 0
M  V30 48 H  24.7623 43.1608 84.3898 0
M  V30 49 H  26.9201 44.3346 84.3568 0
M  V30 50 H  29.0135 43.0970 84.5533 0
M  V30 51 H  22.3933 39.8263 86.8918 0
M  V30 52 H  21.1748 38.9168 87.7710 0
M  V30 53 H  22.8822 38.5991 88.0437 0
M  V30 54 H  21.6085 35.6145 86.0819 0
M  V30 55 H  22.4803 36.0863 87.5161 0
M  V30 56 H  20.7885 36.5050 87.3395 0
M  V30 57 H  20.9186 37.4726 84.3240 0
M  V30 58 H  20.0919 38.3571 85.5888 0
M  V30 59 H  21.3408 39.1400 84.6336 0
M  V30 60 H  22.1182 35.6735 84.0268 0
M  V30 61 H  23.2830 34.3592 82.2181 0
M  V30 62 H  27.6408 37.2014 83.0592 0
M  V30 63 H  27.3888 35.9045 81.8837 0
M  V30 END ATOM
M  V30 BEGIN BOND
M  V30 1 1 1 2
M  V30 2 1 2 3
M  V30 3 1 2 4
M  V30 4 1 2 5
M  V30 5 2 5 6
M  V30 6 1 5 7
M  V30 7 1 6 10
M  V30 8 1 6 39
M  V30 9 2 7 8
M  V30 10 1 7 40
M  V30 11 1 8 9
M  V30 12 1 8 41
M  V30 13 2 9 10
M  V30 14 1 9 42
M  V30 15 1 10 11
M  V30 16 1 11 12
M  V30 17 1 11 43
M  V30 18 2 12 13
M  V30 19 1 12 14
M  V30 20 1 14 15
M  V30 21 1 14 44
M  V30 22 2 15 16
M  V30 23 1 15 20
M  V30 24 1 16 17
M  V30 25 1 16 45
M  V30 26 2 17 18
M  V30 27 1 17 46
M  V30 28 1 18 19
M  V30 29 1 18 25
M  V30 30 2 19 20
M  V30 31 1 19 21
M  V30 32 1 20 24
M  V30 33 2 21 22
M  V30 34 1 21 47
M  V30 35 1 22 23
M  V30 36 1 22 48
M  V30 37 2 23 24
M  V30 38 1 23 49
M  V30 39 1 24 50
M  V30 40 1 25 26
M  V30 41 2 25 33
M  V30 42 2 26 27
M  V30 43 1 27 28
M  V30 44 1 27 32
M  V30 45 1 28 29
M  V30 46 1 28 30
M  V30 47 1 28 31
M  V30 48 1 29 51
M  V30 49 1 29 52
M  V30 50 1 29 53
M  V30 51 1 30 54
M  V30 52 1 30 55
M  V30 53 1 30 56
M  V30 54 1 31 57
M  V30 55 1 31 58
M  V30 56 1 31 59
M  V30 57 1 32 33
M  V30 58 1 32 34
M  V30 59 1 33 37
M  V30 60 2 34 35
M  V30 61 1 34 60
M  V30 62 1 35 36
M  V30 63 1 35 61
M  V30 64 2 36 37
M  V30 65 1 37 38
M  V30 66 1 38 62
M  V30 67 1 38 63
M  V30 END BOND
M  V30 END CTAB
M  END
> <s_m_entry_id>
1381

> <s_m_entry_name>
result.1787

> <s_m_Source_Path>
D:\OneDrive - zju.edu.cn\DOC\A-Finished\LCK_VS\Planet\LCK-8617

> <s_m_Source_File>
glide-dock_SP_top1262_2_pv.maegz

> <i_m_Source_File_Index>
1381

> <PLANET_affinity>
8.499

> <i_lp_mmshare_version>
54117

> <i_f3d_flags>
0

> <s_epik_input>
RkMoRikoRiljMVtjSF1jKFtjSF1bY0hdW2NIXTEpW05IXUMoPU8pW05IXWMoYyhjMjMpW2NIXVtjSF1bY0hdW2NIXTMpW2NIXVtjSF1jMi1jKG5jNEMoW0NIM10pKFtDSDNdKVtDSDNdKWMobjQ1KWMoW05IMl0pbltjSF1bY0hdNQ==

> <s_epik_cmdline>
J2VwaWtfcHl0aG9uJywgJy1waCcsICc3LjAnLCAnLXRuJywgJzgnLCAnLW1hJywgJzUwMCcsICctaW1hZScsICc8aW5maWxlLm1hZT4nLCAnLW9tYWUnLCAnPG91dGZpbGUubWFlPic=

> <r_epik_Ionization_Penalty>
  0.0198

> <r_epik_Ionization_Penalty_Charging>
  0.0000

> <r_epik_Ionization_Penalty_Neutral>
  0.0198

> <r_epik_State_Penalty>
  0.0138

> <r_epik_Charging_Adjusted_Penalty>
0.01376

> <i_epik_Tot_Q>
0

> <i_epik_Tot_abs_Q>
0

> <s_lp_Force_Field>
S-OPLS

> <r_lp_Energy>
57.2267

> <b_lp_Chiralities_Consistent>
1

> <s_lp_Variant>
O=C(NC1=CC=CC(C(F)(F)F)=C1)NC2=C3C=CC=CC3=C(C4=C5C(N)=NC=CN5C(C(C)(C)C)=N4)C=C2-1

> <s_i_glide_gridfile>
glide-grid_1

> <i_i_glide_lignum>
798

> <i_i_glide_rotatable_bonds>
7

> <r_i_docking_score>
-7.30721180518867

> <r_i_glide_ligand_efficiency>
-0.192295047504965

> <r_i_glide_ligand_efficiency_sa>
-0.646491219777042

> <r_i_glide_ligand_efficiency_ln>
-1.57564982159163

> <r_i_glide_gscore>
-7.32101180518867

> <r_i_glide_lipo>
-2.38830993616875

> <r_i_glide_hbond>
-0.488588072720509

> <r_i_glide_metal>
0

> <r_i_glide_rewards>
-1.54030243155596

> <r_i_glide_evdw>
-36.2872314453125

> <r_i_glide_ecoul>
-8.16593837738037

> <r_i_glide_erotb>
0.267359113891847

> <r_i_glide_esite>
-0.13191814976262

> <r_i_glide_emodel>
-63.9053160553432

> <r_i_glide_energy>
-44.4531698226929

> <r_i_glide_einternal>
4.86188268661499

> <i_i_glide_confnum>
22

> <i_i_glide_posenum>
189

> <r_i_glide_eff_state_penalty>
0.0138

> <s_m_subgroup_title>
glide-dock_SP_top1262_2_pv

> <s_m_subgroupid>
glide-dock_SP_top1262_2_pv

> <b_m_subgroup_collapsed>
0

$$$$
O=C1[C@H](N(C2=C(N1C)C=NC(NC3=CC=C(C(NC4CCN(C)CC4)=O)C=C3OC)=N2)C5CCCC5)CC
                    3D
 Schrodinger Suite 2021-3.
  0  0  0     0  0            999 V3000
M  V30 BEGIN CTAB
M  V30 COUNTS 78 82 0 0 0
M  V30 BEGIN ATOM
M  V30 1 C  24.3339 40.5831 85.5942 0
M  V30 2 C  23.7121 41.9755 85.7841 0
M  V30 3 C  22.6818 41.8051 86.8927 0
M  V30 4 C  22.1434 40.3979 86.6550 0
M  V30 5 C  23.3748 39.5527 86.2507 0
M  V30 6 N  23.1333 38.3279 85.4486 0
M  V30 7 C  21.9107 37.5684 85.8676 0 CFG=2
M  V30 8 C  22.1059 36.6043 87.0750 0
M  V30 9 C  20.8482 35.8399 87.5437 0
M  V30 10 C  21.3831 36.7541 84.6458 0
M  V30 11 O  20.1821 36.6919 84.3669 0
M  V30 12 N  22.3855 36.1256 83.9689 0
M  V30 13 C  22.0164 35.1569 82.9336 0
M  V30 14 C  23.7574 36.4217 84.1254 0
M  V30 15 C  24.1544 37.5484 84.8739 0
M  V30 16 C  24.7793 35.6940 83.4948 0
M  V30 17 N  26.0812 36.0485 83.5700 0
M  V30 18 C  26.3761 37.1569 84.2926 0
M  V30 19 N  25.4672 37.9057 84.9645 0
M  V30 20 N  27.7004 37.6010 84.3940 0
M  V30 21 C  28.9361 37.1891 83.8530 0
M  V30 22 C  29.0453 36.2161 82.8495 0
M  V30 23 C  30.2911 35.8221 82.3701 0
M  V30 24 C  31.4692 36.3984 82.8630 0
M  V30 25 C  31.3559 37.3897 83.8496 0
M  V30 26 C  30.1041 37.7919 84.3519 0
M  V30 27 O  29.9577 38.7599 85.3360 0
M  V30 28 C  31.1090 39.3523 85.9264 0
M  V30 29 C  32.8393 35.9488 82.3943 0
M  V30 30 O  33.8562 36.2602 83.0173 0
M  V30 31 N  32.8832 35.1768 81.2927 0
M  V30 32 C  34.0599 34.4874 80.7696 0 CFG=2
M  V30 33 C  33.9310 34.1547 79.2684 0
M  V30 34 C  35.1032 33.3446 78.6951 0
M  V30 35 N  35.2818 32.0750 79.5540 0 CHG=1 CFG=1
M  V30 36 C  36.3689 31.1625 78.9459 0
M  V30 37 C  35.6415 32.4464 81.0105 0
M  V30 38 C  34.4867 33.2636 81.6146 0
M  V30 39 H  25.3008 40.5701 86.1000 0
M  V30 40 H  24.4766 40.4143 84.5270 0
M  V30 41 H  24.4556 42.7390 86.0208 0
M  V30 42 H  23.2116 42.2890 84.8645 0
M  V30 43 H  23.1628 41.8711 87.8699 0
M  V30 44 H  21.9005 42.5673 86.8518 0
M  V30 45 H  21.4155 40.4457 85.8416 0
M  V30 46 H  21.6537 40.0197 87.5541 0
M  V30 47 H  23.8290 39.1990 87.1781 0
M  V30 48 H  21.0803 38.2304 86.1016 0
M  V30 49 H  22.8849 35.8779 86.8385 0
M  V30 50 H  22.4825 37.1806 87.9200 0
M  V30 51 H  21.0943 35.1537 88.3525 0
M  V30 52 H  20.0789 36.5229 87.9033 0
M  V30 53 H  20.4127 35.2311 86.7529 0
M  V30 54 H  20.9475 35.1399 82.7367 0
M  V30 55 H  22.5078 35.3892 81.9885 0
M  V30 56 H  22.3211 34.1593 83.2442 0
M  V30 57 H  24.5768 34.8179 82.8964 0
M  V30 58 H  27.7969 38.3942 85.0114 0
M  V30 59 H  28.1802 35.7415 82.4150 0
M  V30 60 H  30.3194 35.0437 81.6220 0
M  V30 61 H  32.2593 37.8395 84.2343 0
M  V30 62 H  30.7975 40.0683 86.6870 0
M  V30 63 H  31.7344 38.6051 86.4160 0
M  V30 64 H  31.7039 39.8951 85.1896 0
M  V30 65 H  32.0607 35.1464 80.6981 0
M  V30 66 H  34.8977 35.1884 80.8259 0
M  V30 67 H  33.7974 35.0685 78.6864 0
M  V30 68 H  33.0308 33.5566 79.1199 0
M  V30 69 H  34.9054 33.0235 77.6705 0
M  V30 70 H  36.0433 33.8996 78.7237 0
M  V30 71 H  37.3143 31.7089 78.9383 0
M  V30 72 H  36.4303 30.2670 79.5651 0
M  V30 73 H  36.0483 30.9048 77.9354 0
M  V30 74 H  35.8076 31.5188 81.5600 0
M  V30 75 H  36.5755 33.0133 80.9851 0
M  V30 76 H  33.6318 32.5935 81.7206 0
M  V30 77 H  34.7631 33.5796 82.6228 0
M  V30 78 H  34.3872 31.5867 79.5594 0
M  V30 END ATOM
M  V30 BEGIN BOND
M  V30 1 1 1 2
M  V30 2 1 1 5
M  V30 3 1 1 39
M  V30 4 1 1 40
M  V30 5 1 2 3
M  V30 6 1 2 41
M  V30 7 1 2 42
M  V30 8 1 3 4
M  V30 9 1 3 43
M  V30 10 1 3 44
M  V30 11 1 4 5
M  V30 12 1 4 45
M  V30 13 1 4 46
M  V30 14 1 5 6
M  V30 15 1 5 47
M  V30 16 1 6 7
M  V30 17 1 6 15
M  V30 18 1 7 8
M  V30 19 1 7 10
M  V30 20 1 7 48
M  V30 21 1 8 9
M  V30 22 1 8 49
M  V30 23 1 8 50
M  V30 24 1 9 51
M  V30 25 1 9 52
M  V30 26 1 9 53
M  V30 27 2 10 11
M  V30 28 1 10 12
M  V30 29 1 12 13
M  V30 30 1 12 14
M  V30 31 1 13 54
M  V30 32 1 13 55
M  V30 33 1 13 56
M  V30 34 2 14 15
M  V30 35 1 14 16
M  V30 36 1 15 19
M  V30 37 2 16 17
M  V30 38 1 16 57
M  V30 39 1 17 18
M  V30 40 2 18 19
M  V30 41 1 18 20
M  V30 42 1 20 21
M  V30 43 1 20 58
M  V30 44 2 21 22
M  V30 45 1 21 26
M  V30 46 1 22 23
M  V30 47 1 22 59
M  V30 48 2 23 24
M  V30 49 1 23 60
M  V30 50 1 24 25
M  V30 51 1 24 29
M  V30 52 2 25 26
M  V30 53 1 25 61
M  V30 54 1 26 27
M  V30 55 1 27 28
M  V30 56 1 28 62
M  V30 57 1 28 63
M  V30 58 1 28 64
M  V30 59 2 29 30
M  V30 60 1 29 31
M  V30 61 1 31 32
M  V30 62 1 31 65
M  V30 63 1 32 33
M  V30 64 1 32 38
M  V30 65 1 32 66
M  V30 66 1 33 34
M  V30 67 1 33 67
M  V30 68 1 33 68
M  V30 69 1 34 35
M  V30 70 1 34 69
M  V30 71 1 34 70
M  V30 72 1 35 36
M  V30 73 1 35 37
M  V30 74 1 35 78
M  V30 75 1 36 71
M  V30 76 1 36 72
M  V30 77 1 36 73
M  V30 78 1 37 38
M  V30 79 1 37 74
M  V30 80 1 37 75
M  V30 81 1 38 76
M  V30 82 1 38 77
M  V30 END BOND
M  V30 END CTAB
M  END
> <s_m_entry_id>
1384

> <s_m_entry_name>
result.4108

> <s_m_Source_Path>
D:\OneDrive - zju.edu.cn\DOC\A-Finished\LCK_VS\Planet\LCK-8617

> <s_m_Source_File>
glide-dock_SP_top1262_2_pv.maegz

> <i_m_Source_File_Index>
1384

> <PLANET_affinity>
9.633

> <i_lp_mmshare_version>
54117

> <i_f3d_flags>
0

> <s_epik_input>
W0NIMl0xW0NIMl1bQ0gyXVtDSDJdW0NIXTFOKFtDQEhdKFtDSDJdW0NIM10pQyg9TylOMltDSDNdKWMoYzIzKW5jKG5bY0hdMylbTkhdYzRbY0hdW2NIXWMoW2NIXWM0T1tDSDNdKUMoPU8pW05IXVtDSF01W0NIMl1bQ0gyXU4oW0NIM10pW0NIMl1bQ0gyXTU=

> <s_epik_cmdline>
J2VwaWtfcHl0aG9uJywgJy1waCcsICc3LjAnLCAnLXRuJywgJzgnLCAnLW1hJywgJzUwMCcsICctaW1hZScsICc8aW5maWxlLm1hZT4nLCAnLW9tYWUnLCAnPG91dGZpbGUubWFlPic=

> <r_epik_Ionization_Penalty>
  0.0476

> <r_epik_Ionization_Penalty_Charging>
  0.0049

> <r_epik_Ionization_Penalty_Neutral>
  0.0426

> <r_epik_State_Penalty>
  0.0356

> <r_epik_Charging_Adjusted_Penalty>
0.0405113

> <i_epik_Tot_Q>
1

> <i_epik_Tot_abs_Q>
1

> <s_lp_Force_Field>
S-OPLS

> <r_lp_Energy>
88.5163

> <b_lp_Chiralities_Consistent>
1

> <s_lp_Variant>
O=C1[C@H](N(C2=C(N1C)C=NC(NC3=CC=C(C(NC4CCN(C)CC4)=O)C=C3OC)=N2)C5CCCC5)CC-1

> <s_i_glide_gridfile>
glide-grid_1

> <i_i_glide_lignum>
309

> <i_i_glide_rotatable_bonds>
8

> <r_i_docking_score>
-7.30596460507677

> <r_i_glide_ligand_efficiency>
-0.192262226449389

> <r_i_glide_ligand_efficiency_sa>
-0.646380876195503

> <r_i_glide_ligand_efficiency_ln>
-1.57538088855859

> <r_i_glide_gscore>
-7.34156460507677

> <r_i_glide_lipo>
-2.25584856462477

> <r_i_glide_hbond>
-0.70918553533594

> <r_i_glide_metal>
0

> <r_i_glide_rewards>
-1.08076536010318

> <r_i_glide_evdw>
-41.1414909362793

> <r_i_glide_ecoul>
-10.6918153762817

> <r_i_glide_erotb>
0.451693236845374

> <r_i_glide_esite>
-0.0866115286020284

> <r_i_glide_emodel>
-75.5151070561034

> <r_i_glide_energy>
-51.833306312561

> <r_i_glide_einternal>
6.1626296043396

> <i_i_glide_confnum>
188

> <i_i_glide_posenum>
379

> <r_i_glide_eff_state_penalty>
0.0356

> <r_lp_tautomer_probability>
1

> <s_m_subgroup_title>
glide-dock_SP_top1262_2_pv

> <s_m_subgroupid>
glide-dock_SP_top1262_2_pv

> <b_m_subgroup_collapsed>
0

$$$$
CNC(C1=CC=CC=C1OC2=NC(NC3=CC(OC)=C(OC)C(OC)=C3)=NC=C2Br)=O
                    3D
 Schrodinger Suite 2021-3.
  0  0  0     0  0            999 V3000
M  V30 BEGIN CTAB
M  V30 COUNTS 52 54 0 0 0
M  V30 BEGIN ATOM
M  V30 1 C  22.3994 42.0693 83.6333 0
M  V30 2 N  23.4555 41.4716 84.4430 0
M  V30 3 C  23.3283 40.3368 85.1525 0
M  V30 4 O  22.2953 39.6656 85.1621 0
M  V30 5 C  24.5488 39.9163 85.9451 0
M  V30 6 C  25.3728 40.8867 86.5433 0
M  V30 7 C  26.4878 40.5171 87.2942 0
M  V30 8 C  26.7985 39.1716 87.4651 0
M  V30 9 C  25.9946 38.1983 86.8795 0
M  V30 10 C  24.8755 38.5548 86.1176 0
M  V30 11 O  24.0737 37.5635 85.5896 0
M  V30 12 C  24.4849 36.7336 84.5629 0
M  V30 13 N  25.7956 36.7284 84.1849 0
M  V30 14 C  26.1379 35.9375 83.1344 0
M  V30 15 N  25.2739 35.1530 82.4436 0
M  V30 16 C  23.9756 35.1698 82.8406 0
M  V30 17 C  23.5315 35.9572 83.8995 0
M  V30 18 Br 21.6890 36.0057 84.3747 0
M  V30 19 N  27.4725 35.8596 82.7163 0
M  V30 20 C  28.6376 36.5302 83.1173 0
M  V30 21 C  28.6142 37.7898 83.7176 0
M  V30 22 C  29.7943 38.4131 84.1094 0
M  V30 23 O  29.6984 39.6530 84.6911 0
M  V30 24 C  29.9992 39.6864 86.0797 0
M  V30 25 C  31.0280 37.7855 83.8843 0
M  V30 26 O  32.1881 38.4159 84.2756 0
M  V30 27 C  32.8292 37.8381 85.4096 0
M  V30 28 C  31.0729 36.5376 83.2423 0
M  V30 29 C  29.8675 35.9195 82.8675 0
M  V30 30 O  32.3240 35.9930 83.0181 0
M  V30 31 C  32.4441 34.6472 82.5775 0
M  V30 32 H  22.4876 41.7428 82.5969 0
M  V30 33 H  22.4888 43.1555 83.6539 0
M  V30 34 H  21.4019 41.8092 83.9913 0
M  V30 35 H  24.3478 41.9414 84.4366 0
M  V30 36 H  25.1500 41.9402 86.4457 0
M  V30 37 H  27.1080 41.2761 87.7485 0
M  V30 38 H  27.6581 38.8829 88.0524 0
M  V30 39 H  26.2342 37.1567 87.0212 0
M  V30 40 H  23.2829 34.5550 82.2842 0
M  V30 41 H  27.6030 35.2592 81.9126 0
M  V30 42 H  27.6854 38.3111 83.8869 0
M  V30 43 H  29.4592 40.5088 86.5477 0
M  V30 44 H  29.7157 38.7642 86.5934 0
M  V30 45 H  31.0616 39.8642 86.2430 0
M  V30 46 H  33.5909 38.5241 85.7792 0
M  V30 47 H  32.1323 37.6465 86.2280 0
M  V30 48 H  33.3274 36.9017 85.1578 0
M  V30 49 H  29.8761 34.9550 82.3819 0
M  V30 50 H  33.4961 34.4200 82.4057 0
M  V30 51 H  32.0821 33.9568 83.3396 0
M  V30 52 H  31.9155 34.4666 81.6426 0
M  V30 END ATOM
M  V30 BEGIN BOND
M  V30 1 1 1 2
M  V30 2 1 1 32
M  V30 3 1 1 33
M  V30 4 1 1 34
M  V30 5 1 2 3
M  V30 6 1 2 35
M  V30 7 2 3 4
M  V30 8 1 3 5
M  V30 9 2 5 6
M  V30 10 1 5 10
M  V30 11 1 6 7
M  V30 12 1 6 36
M  V30 13 2 7 8
M  V30 14 1 7 37
M  V30 15 1 8 9
M  V30 16 1 8 38
M  V30 17 2 9 10
M  V30 18 1 9 39
M  V30 19 1 10 11
M  V30 20 1 11 12
M  V30 21 2 12 13
M  V30 22 1 12 17
M  V30 23 1 13 14
M  V30 24 2 14 15
M  V30 25 1 14 19
M  V30 26 1 15 16
M  V30 27 2 16 17
M  V30 28 1 16 40
M  V30 29 1 17 18
M  V30 30 1 19 20
M  V30 31 1 19 41
M  V30 32 2 20 21
M  V30 33 1 20 29
M  V30 34 1 21 22
M  V30 35 1 21 42
M  V30 36 1 22 23
M  V30 37 2 22 25
M  V30 38 1 23 24
M  V30 39 1 24 43
M  V30 40 1 24 44
M  V30 41 1 24 45
M  V30 42 1 25 26
M  V30 43 1 25 28
M  V30 44 1 26 27
M  V30 45 1 27 46
M  V30 46 1 27 47
M  V30 47 1 27 48
M  V30 48 2 28 29
M  V30 49 1 28 30
M  V30 50 1 29 49
M  V30 51 1 30 31
M  V30 52 1 31 50
M  V30 53 1 31 51
M  V30 54 1 31 52
M  V30 END BOND
M  V30 END CTAB
M  END
> <s_m_entry_id>
1385

> <s_m_entry_name>
result.96

> <s_m_Source_Path>
D:\OneDrive - zju.edu.cn\DOC\A-Finished\LCK_VS\Planet\LCK-8617

> <s_m_Source_File>
glide-dock_SP_top1262_2_pv.maegz

> <i_m_Source_File_Index>
1385

> <PLANET_affinity>
7.631

> <i_lp_mmshare_version>
54117

> <i_f3d_flags>
0

> <s_epik_input>
W0NIM11bTkhdQyg9TyljMVtjSF1bY0hdW2NIXVtjSF1jMU9jMm5jKG5bY0hdYzJCcilbTkhdYzNbY0hdYyhPW0NIM10pYyhPW0NIM10pYyhbY0hdMylPW0NIM10=

> <s_epik_cmdline>
J2VwaWtfcHl0aG9uJywgJy1waCcsICc3LjAnLCAnLXRuJywgJzgnLCAnLW1hJywgJzUwMCcsICctaW1hZScsICc8aW5maWxlLm1hZT4nLCAnLW9tYWUnLCAnPG91dGZpbGUubWFlPic=

> <r_epik_Ionization_Penalty>
  0.0001

> <r_epik_Ionization_Penalty_Charging>
  0.0000

> <r_epik_Ionization_Penalty_Neutral>
  0.0001

> <r_epik_State_Penalty>
  0.0000

> <r_epik_Charging_Adjusted_Penalty>
0

> <i_epik_Tot_Q>
0

> <i_epik_Tot_abs_Q>
0

> <s_lp_Force_Field>
S-OPLS

> <r_lp_Energy>
42.8648

> <b_lp_Chiralities_Consistent>
1

> <s_lp_Variant>
CNC(C1=CC=CC=C1OC2=NC(NC3=CC(OC)=C(OC)C(OC)=C3)=NC=C2Br)=O-1

> <s_i_glide_gridfile>
glide-grid_1

> <i_i_glide_lignum>
1749

> <i_i_glide_rotatable_bonds>
9

> <r_i_docking_score>
-7.30514177518889

> <r_i_glide_ligand_efficiency>
-0.235649734683513

> <r_i_glide_ligand_efficiency_sa>
-0.740265516428597

> <r_i_glide_ligand_efficiency_ln>
-1.64753334601405

> <r_i_glide_gscore>
-7.30514177518889

> <r_i_glide_lipo>
-2.3431527281616

> <r_i_glide_hbond>
-0.528342849415317

> <r_i_glide_metal>
0

> <r_i_glide_rewards>
-1.48461799433143

> <r_i_glide_evdw>
-43.6763877868652

> <r_i_glide_ecoul>
-7.02855014801025

> <r_i_glide_erotb>
0.297365935008967

> <r_i_glide_esite>
-0.00829222674471349

> <r_i_glide_emodel>
-70.0795119142577

> <r_i_glide_energy>
-50.7049379348755

> <r_i_glide_einternal>
8.19680213928223

> <i_i_glide_confnum>
37

> <i_i_glide_posenum>
314

> <r_i_glide_eff_state_penalty>
0

> <r_lp_tautomer_probability>
1

> <s_m_subgroup_title>
glide-dock_SP_top1262_2_pv

> <s_m_subgroupid>
glide-dock_SP_top1262_2_pv

> <b_m_subgroup_collapsed>
0

$$$$
COC1=C(C2=C(C)ON=C2C)C=C(N=CC3=C4N(C(C5CCOCC5)=N3)[C@@H](COC)C)C4=C1
                    3D
 Schrodinger Suite 2021-3.
  0  0  0     0  0            999 V3000
M  V30 BEGIN CTAB
M  V30 COUNTS 63 67 0 0 0
M  V30 BEGIN ATOM
M  V30 1 C  30.0842 35.2847 83.0168 0
M  V30 2 C  30.2582 36.7687 83.2434 0
M  V30 3 N  31.4526 37.2833 83.0584 0
M  V30 4 O  31.3375 38.6431 83.3162 0
M  V30 5 C  30.0535 38.9161 83.6437 0
M  V30 6 C  29.7488 40.3791 83.8710 0
M  V30 7 C  29.3120 37.7364 83.6336 0
M  V30 8 C  27.8466 37.5531 83.9204 0
M  V30 9 C  27.1229 36.6344 83.1523 0
M  V30 10 C  27.1941 38.2761 84.9301 0
M  V30 11 O  27.9545 39.0926 85.7488 0
M  V30 12 C  27.4250 39.5358 86.9952 0
M  V30 13 C  25.8073 38.1557 85.0803 0
M  V30 14 C  25.0509 37.2249 84.3247 0
M  V30 15 C  25.7419 36.4236 83.3665 0
M  V30 16 C  23.6349 37.0226 84.4466 0
M  V30 17 C  23.0185 36.0110 83.6797 0
M  V30 18 C  23.7898 35.2509 82.7976 0
M  V30 19 N  25.1175 35.4640 82.6264 0
M  V30 20 N  21.6830 35.9567 83.9257 0
M  V30 21 C  21.4565 36.8891 84.8161 0
M  V30 22 N  22.5898 37.6234 85.1627 0
M  V30 23 C  22.5887 38.8115 86.0385 0 CFG=2
M  V30 24 C  22.9693 40.0699 85.2171 0
M  V30 25 C  23.3276 38.5567 87.3768 0
M  V30 26 O  23.7081 39.7563 88.0433 0
M  V30 27 C  22.6409 40.4645 88.6637 0
M  V30 28 C  20.0701 37.0565 85.4314 0
M  V30 29 C  19.9274 36.4960 86.8708 0
M  V30 30 C  18.6245 36.9001 87.5789 0
M  V30 31 O  18.3668 38.2765 87.3456 0
M  V30 32 C  18.0160 38.5336 85.9898 0
M  V30 33 C  19.2303 38.3127 85.0606 0
M  V30 34 H  29.8375 35.0642 81.9779 0
M  V30 35 H  30.9949 34.7312 83.2443 0
M  V30 36 H  29.2957 34.8631 83.6400 0
M  V30 37 H  28.6875 40.6003 83.7643 0
M  V30 38 H  30.0489 40.6940 84.8701 0
M  V30 39 H  30.2792 41.0189 83.1650 0
M  V30 40 H  27.6089 36.0629 82.3742 0
M  V30 41 H  28.2217 40.0003 87.5766 0
M  V30 42 H  26.6420 40.2827 86.8545 0
M  V30 43 H  27.0285 38.7070 87.5848 0
M  V30 44 H  25.3227 38.7899 85.7901 0
M  V30 45 H  23.3336 34.4814 82.1929 0
M  V30 46 H  21.5662 38.9896 86.3563 0
M  V30 47 H  22.9425 40.9732 85.8268 0
M  V30 48 H  23.9540 40.0252 84.7595 0
M  V30 49 H  22.2607 40.2216 84.4008 0
M  V30 50 H  22.7065 37.9555 88.0432 0
M  V30 51 H  24.2211 37.9567 87.2433 0
M  V30 52 H  23.0353 41.3548 89.1527 0
M  V30 53 H  21.8878 40.7900 87.9456 0
M  V30 54 H  22.1515 39.8571 89.4262 0
M  V30 55 H  19.3826 36.3565 84.9577 0
M  V30 56 H  20.7206 36.9194 87.4849 0
M  V30 57 H  20.0308 35.4093 86.8890 0
M  V30 58 H  18.7063 36.7220 88.6501 0
M  V30 59 H  17.7869 36.2857 87.2427 0
M  V30 60 H  17.6531 39.5568 85.9101 0
M  V30 61 H  17.1796 37.9004 85.6851 0
M  V30 62 H  18.9041 38.2862 84.0191 0
M  V30 63 H  19.8298 39.2116 85.1841 0
M  V30 END ATOM
M  V30 BEGIN BOND
M  V30 1 1 1 2
M  V30 2 1 1 34
M  V30 3 1 1 35
M  V30 4 1 1 36
M  V30 5 2 2 3
M  V30 6 1 2 7
M  V30 7 1 3 4
M  V30 8 1 4 5
M  V30 9 1 5 6
M  V30 10 2 5 7
M  V30 11 1 6 37
M  V30 12 1 6 38
M  V30 13 1 6 39
M  V30 14 1 7 8
M  V30 15 2 8 9
M  V30 16 1 8 10
M  V30 17 1 9 15
M  V30 18 1 9 40
M  V30 19 1 10 11
M  V30 20 2 10 13
M  V30 21 1 11 12
M  V30 22 1 12 41
M  V30 23 1 12 42
M  V30 24 1 12 43
M  V30 25 1 13 14
M  V30 26 1 13 44
M  V30 27 2 14 15
M  V30 28 1 14 16
M  V30 29 1 15 19
M  V30 30 2 16 17
M  V30 31 1 16 22
M  V30 32 1 17 18
M  V30 33 1 17 20
M  V30 34 2 18 19
M  V30 35 1 18 45
M  V30 36 2 20 21
M  V30 37 1 21 22
M  V30 38 1 21 28
M  V30 39 1 22 23
M  V30 40 1 23 24
M  V30 41 1 23 25
M  V30 42 1 23 46
M  V30 43 1 24 47
M  V30 44 1 24 48
M  V30 45 1 24 49
M  V30 46 1 25 26
M  V30 47 1 25 50
M  V30 48 1 25 51
M  V30 49 1 26 27
M  V30 50 1 27 52
M  V30 51 1 27 53
M  V30 52 1 27 54
M  V30 53 1 28 29
M  V30 54 1 28 33
M  V30 55 1 28 55
M  V30 56 1 29 30
M  V30 57 1 29 56
M  V30 58 1 29 57
M  V30 59 1 30 31
M  V30 60 1 30 58
M  V30 61 1 30 59
M  V30 62 1 31 32
M  V30 63 1 32 33
M  V30 64 1 32 60
M  V30 65 1 32 61
M  V30 66 1 33 62
M  V30 67 1 33 63
M  V30 END BOND
M  V30 END CTAB
M  END
> <s_m_entry_id>
1386

> <s_m_entry_name>
result.3316

> <s_m_Source_Path>
D:\OneDrive - zju.edu.cn\DOC\A-Finished\LCK_VS\Planet\LCK-8617

> <s_m_Source_File>
glide-dock_SP_top1262_2_pv.maegz

> <i_m_Source_File_Index>
1386

> <PLANET_affinity>
7.693

> <i_lp_mmshare_version>
54117

> <i_f3d_flags>
0

> <s_epik_input>
W0NIM11jMW5vYyhbQ0gzXSljMS1jKGMoW2NIXTIpT1tDSDNdKVtjSF1jKGMyMyluW2NIXWM0YzNuKFtDQEhdKFtDSDNdKVtDSDJdT1tDSDNdKWMobjQpW0NIXTVbQ0gyXVtDSDJdT1tDSDJdW0NIMl01

> <s_epik_cmdline>
J2VwaWtfcHl0aG9uJywgJy1waCcsICc3LjAnLCAnLXRuJywgJzgnLCAnLW1hJywgJzUwMCcsICctaW1hZScsICc8aW5maWxlLm1hZT4nLCAnLW9tYWUnLCAnPG91dGZpbGUubWFlPic=

> <r_epik_Ionization_Penalty>
  0.0677

> <r_epik_Ionization_Penalty_Charging>
  0.0677

> <r_epik_Ionization_Penalty_Neutral>
  0.0000

> <r_epik_State_Penalty>
  0.0568

> <r_epik_Charging_Adjusted_Penalty>
0.124446

> <i_epik_Tot_Q>
0

> <i_epik_Tot_abs_Q>
0

> <s_lp_Force_Field>
S-OPLS

> <r_lp_Energy>
38.2721

> <b_lp_Chiralities_Consistent>
1

> <s_lp_Variant>
COC1=C(C2=C(C)ON=C2C)C=C(N=CC3=C4N(C(C5CCOCC5)=N3)[C@@H](COC)C)C4=C1-1

> <s_i_glide_gridfile>
glide-grid_1

> <i_i_glide_lignum>
1675

> <i_i_glide_rotatable_bonds>
6

> <r_i_docking_score>
-7.30379445291633

> <r_i_glide_ligand_efficiency>
-0.221327104633828

> <r_i_glide_ligand_efficiency_sa>
-0.709914285444176

> <r_i_glide_ligand_efficiency_ln>
-1.62432606930484

> <r_i_glide_gscore>
-7.36059445291633

> <r_i_glide_lipo>
-3.56308767961608

> <r_i_glide_hbond>
-0.203700074175001

> <r_i_glide_metal>
0

> <r_i_glide_rewards>
-1.58904215154741

> <r_i_glide_evdw>
-43.763858795166

> <r_i_glide_ecoul>
-1.41122996807098

> <r_i_glide_erotb>
0.395112887391103

> <r_i_glide_esite>
0

> <r_i_glide_emodel>
-60.5076730897079

> <r_i_glide_energy>
-45.175088763237

> <r_i_glide_einternal>
7.93581771850586

> <i_i_glide_confnum>
48

> <i_i_glide_posenum>
58

> <r_i_glide_eff_state_penalty>
0.0568

> <s_m_subgroup_title>
glide-dock_SP_top1262_2_pv

> <s_m_subgroupid>
glide-dock_SP_top1262_2_pv

> <b_m_subgroup_collapsed>
0

$$$$
OC(C1=C(CCCOC2=CC=C(CN)C=C2)SC(C3=CC4=C(CCC/C4=N\NC5=NC(C=CC=C6)=C6S5)C=C3)=N...
                    3D
 Schrodinger Suite 2021-3.
  0  0  0     0  0            999 V3000
M  V30 BEGIN CTAB
M  V30 COUNTS 70 75 0 0 0
M  V30 BEGIN ATOM
M  V30 1 N  20.4830 47.5566 87.6436 0 CHG=1
M  V30 2 C  21.8223 47.8872 86.9801 0
M  V30 3 C  22.9900 47.2761 87.7292 0
M  V30 4 C  23.4963 46.0321 87.3445 0
M  V30 5 C  24.5531 45.4643 88.0532 0
M  V30 6 C  23.5645 47.9670 88.7970 0
M  V30 7 C  24.6136 47.3933 89.5052 0
M  V30 8 C  25.1046 46.1375 89.1537 0
M  V30 9 O  26.1311 45.6580 89.9408 0
M  V30 10 C  26.6228 44.3291 89.7823 0
M  V30 11 C  25.6318 43.2583 90.2921 0
M  V30 12 C  26.2691 41.8773 90.5530 0
M  V30 13 C  26.8869 41.2449 89.3130 0
M  V30 14 C  28.1810 41.3379 88.7333 0
M  V30 15 C  29.3566 42.1057 89.2448 0
M  V30 16 O  29.3999 42.3568 90.4723 0 CHG=-1
M  V30 17 O  30.2480 42.4624 88.4362 0
M  V30 18 S  25.9439 40.1639 88.3142 0
M  V30 19 C  27.3063 39.9287 87.2684 0
M  V30 20 N  28.3536 40.6238 87.6279 0
M  V30 21 C  27.2899 38.9859 86.0942 0
M  V30 22 C  26.1476 38.2594 85.7357 0
M  V30 23 C  28.4487 38.8034 85.3338 0
M  V30 24 C  28.4712 37.9013 84.2769 0
M  V30 25 C  27.3400 37.1565 83.9372 0
M  V30 26 C  26.1410 37.3446 84.6631 0
M  V30 27 C  27.3991 36.1517 82.7956 0
M  V30 28 C  26.0655 36.1778 82.0438 0
M  V30 29 C  24.8822 35.8287 82.9560 0
M  V30 30 C  24.8808 36.6324 84.2788 0
M  V30 31 N  23.8885 36.6736 85.0833 0
M  V30 32 N  22.6595 36.1373 84.6697 0
M  V30 33 C  21.4861 36.4263 85.3092 0
M  V30 34 N  20.4878 37.0028 84.7103 0
M  V30 35 S  21.2823 35.9975 86.9922 0
M  V30 36 C  19.6708 36.6903 86.8885 0
M  V30 37 C  19.4660 37.2058 85.5789 0
M  V30 38 C  18.6664 36.7719 87.8589 0
M  V30 39 C  17.4820 37.4213 87.5149 0
M  V30 40 C  17.2865 37.9565 86.2431 0
M  V30 41 C  18.2652 37.8497 85.2544 0
M  V30 42 H  19.7263 48.0858 87.2121 0
M  V30 43 H  20.4984 47.7536 88.6320 0
M  V30 44 H  21.7307 47.5099 85.9594 0
M  V30 45 H  21.8659 48.9777 86.9595 0
M  V30 46 H  23.0658 45.4994 86.5067 0
M  V30 47 H  24.9277 44.5030 87.7374 0
M  V30 48 H  23.1908 48.9366 89.0930 0
M  V30 49 H  25.0479 47.9191 90.3426 0
M  V30 50 H  26.9369 44.1403 88.7544 0
M  V30 51 H  27.5292 44.2918 90.3849 0
M  V30 52 H  25.1928 43.6120 91.2258 0
M  V30 53 H  24.8001 43.1461 89.5974 0
M  V30 54 H  27.0033 41.9720 91.3523 0
M  V30 55 H  25.5108 41.2131 90.9701 0
M  V30 56 H  25.2421 38.4139 86.3031 0
M  V30 57 H  29.3541 39.3447 85.5699 0
M  V30 58 H  29.3896 37.7684 83.7233 0
M  V30 59 H  28.2260 36.3569 82.1136 0
M  V30 60 H  27.5756 35.1545 83.2005 0
M  V30 61 H  25.9143 37.1539 81.5780 0
M  V30 62 H  26.0830 35.4486 81.2435 0
M  V30 63 H  23.9483 35.9571 82.4084 0
M  V30 64 H  24.9526 34.7695 83.2089 0
M  V30 65 H  22.6208 36.0204 83.6689 0
M  V30 66 H  18.8062 36.3560 88.8436 0
M  V30 67 H  16.6966 37.5270 88.2513 0
M  V30 68 H  16.3558 38.4613 86.0245 0
M  V30 69 H  18.1007 38.2479 84.2659 0
M  V30 70 H  20.2545 46.5744 87.4979 0
M  V30 END ATOM
M  V30 BEGIN BOND
M  V30 1 1 1 2
M  V30 2 1 1 42
M  V30 3 1 1 43
M  V30 4 1 1 70
M  V30 5 1 2 3
M  V30 6 1 2 44
M  V30 7 1 2 45
M  V30 8 2 3 4
M  V30 9 1 3 6
M  V30 10 1 4 5
M  V30 11 1 4 46
M  V30 12 2 5 8
M  V30 13 1 5 47
M  V30 14 2 6 7
M  V30 15 1 6 48
M  V30 16 1 7 8
M  V30 17 1 7 49
M  V30 18 1 8 9
M  V30 19 1 9 10
M  V30 20 1 10 11
M  V30 21 1 10 50
M  V30 22 1 10 51
M  V30 23 1 11 12
M  V30 24 1 11 52
M  V30 25 1 11 53
M  V30 26 1 12 13
M  V30 27 1 12 54
M  V30 28 1 12 55
M  V30 29 2 13 14
M  V30 30 1 13 18
M  V30 31 1 14 15
M  V30 32 1 14 20
M  V30 33 1 15 16
M  V30 34 2 15 17
M  V30 35 1 18 19
M  V30 36 2 19 20
M  V30 37 1 19 21
M  V30 38 2 21 22
M  V30 39 1 21 23
M  V30 40 1 22 26
M  V30 41 1 22 56
M  V30 42 2 23 24
M  V30 43 1 23 57
M  V30 44 1 24 25
M  V30 45 1 24 58
M  V30 46 2 25 26
M  V30 47 1 25 27
M  V30 48 1 26 30
M  V30 49 1 27 28
M  V30 50 1 27 59
M  V30 51 1 27 60
M  V30 52 1 28 29
M  V30 53 1 28 61
M  V30 54 1 28 62
M  V30 55 1 29 30
M  V30 56 1 29 63
M  V30 57 1 29 64
M  V30 58 2 30 31
M  V30 59 1 31 32
M  V30 60 1 32 33
M  V30 61 1 32 65
M  V30 62 2 33 34
M  V30 63 1 33 35
M  V30 64 1 34 37
M  V30 65 1 35 36
M  V30 66 2 36 37
M  V30 67 1 36 38
M  V30 68 1 37 41
M  V30 69 2 38 39
M  V30 70 1 38 66
M  V30 71 1 39 40
M  V30 72 1 39 67
M  V30 73 2 40 41
M  V30 74 1 40 68
M  V30 75 1 41 69
M  V30 END BOND
M  V30 END CTAB
M  END
> <s_m_entry_id>
1387

> <s_m_entry_name>
result.5364

> <s_m_Source_Path>
D:\OneDrive - zju.edu.cn\DOC\A-Finished\LCK_VS\Planet\LCK-8617

> <s_m_Source_File>
glide-dock_SP_top1262_2_pv.maegz

> <i_m_Source_File_Index>
1387

> <PLANET_affinity>
8.669

> <i_lp_mmshare_version>
54117

> <i_f3d_flags>
0

> <s_epik_input>
W05IMl1bQ0gyXWMxW2NIXVtjSF1jKFtjSF1bY0hdMSlPW0NIMl1bQ0gyXVtDSDJdYzJjKEMoPU8pW09IXSluYyhzMiktYyhbY0hdW2NIXTMpW2NIXWMoYzM0KS9DKFtDSDJdW0NIMl1bQ0gyXTQpPU4vW05IXWMoczUpbmMoYzU2KVtjSF1bY0hdW2NIXVtjSF02

> <s_epik_cmdline>
J2VwaWtfcHl0aG9uJywgJy1waCcsICc3LjAnLCAnLXRuJywgJzgnLCAnLW1hJywgJzUwMCcsICctaW1hZScsICc8aW5maWxlLm1hZT4nLCAnLW9tYWUnLCAnPG91dGZpbGUubWFlPic=

> <r_epik_Ionization_Penalty>
  0.0429

> <r_epik_Ionization_Penalty_Charging>
  0.0267

> <r_epik_Ionization_Penalty_Neutral>
  0.0162

> <r_epik_State_Penalty>
  0.2167

> <r_epik_Charging_Adjusted_Penalty>
0.243399

> <i_epik_Tot_Q>
0

> <i_epik_Tot_abs_Q>
2

> <s_epik_Chemistry_Notes>
This compound has an imine and may undergo hydrolysis.

> <s_lp_Force_Field>
S-OPLS

> <r_lp_Energy>
64.5427

> <b_lp_Chiralities_Consistent>
1

> <s_lp_Variant>
OC(C1=C(CCCOC2=CC=C(CN)C=C2)SC(C3=CC4=C(CCC/C4=N\NC5=NC(C=CC=C6)=C6S5)C=C3)=N...-1

> <s_i_glide_gridfile>
glide-grid_1

> <i_i_glide_lignum>
679

> <i_i_glide_rotatable_bonds>
10

> <r_i_docking_score>
-7.30130063670369

> <r_i_glide_ligand_efficiency>
-0.178080503334236

> <r_i_glide_ligand_efficiency_sa>
-0.614060261013029

> <r_i_glide_ligand_efficiency_ln>
-1.54899522769124

> <r_i_glide_gscore>
-7.51800063670369

> <r_i_glide_lipo>
-3.35694136290355

> <r_i_glide_hbond>
-0.426388945813172

> <r_i_glide_metal>
0

> <r_i_glide_rewards>
-0.416970203283402

> <r_i_glide_evdw>
-47.5137634277344

> <r_i_glide_ecoul>
-7.79578256607056

> <r_i_glide_erotb>
0.326914913375514

> <r_i_glide_esite>
-0.0995594817817756

> <r_i_glide_emodel>
-81.6744541552574

> <r_i_glide_energy>
-55.3095459938049

> <r_i_glide_einternal>
9.71002674102783

> <i_i_glide_confnum>
99

> <i_i_glide_posenum>
375

> <r_i_glide_eff_state_penalty>
0.2167

> <r_lp_tautomer_probability>
1

> <s_m_subgroup_title>
glide-dock_SP_top1262_2_pv

> <s_m_subgroupid>
glide-dock_SP_top1262_2_pv

> <b_m_subgroup_collapsed>
0

$$$$
O=C(NS(=O)(C1=CC=C(N[C@H](CCN(CCO)C)CSC2=CC=CC=C2)C(S(=O)(C(F)(F)F)=O)=C1)=O)...
                    3D
 Schrodinger Suite 2021-3.
  0  0  0     0  0            999 V3000
M  V30 BEGIN CTAB
M  V30 COUNTS 111 116 0 0 0
M  V30 BEGIN ATOM
M  V30 1 C  23.4977 41.1376 92.5866 0
M  V30 2 C  23.5084 39.9568 93.3233 0
M  V30 3 C  22.4683 39.6754 94.2044 0
M  V30 4 C  21.4263 40.5787 94.3842 0
M  V30 5 C  21.4083 41.7629 93.6436 0
M  V30 6 C  22.4451 42.0381 92.7498 0
M  V30 7 S  22.4524 43.5859 91.8984 0
M  V30 8 C  22.7287 43.2758 90.1229 0
M  V30 9 C  21.5927 42.5864 89.3255 0 CFG=1
M  V30 10 C  20.3312 43.4694 89.1171 0
M  V30 11 C  19.6037 43.9665 90.3868 0
M  V30 12 N  18.1900 44.5130 90.0420 0 CHG=1 CFG=1
M  V30 13 C  17.0659 43.8198 90.8449 0
M  V30 14 C  18.0609 46.0601 90.0929 0
M  V30 15 C  18.6483 46.6826 88.8194 0
M  V30 16 O  18.5173 48.0825 88.8438 0
M  V30 17 N  22.1053 42.1597 88.0185 0
M  V30 18 C  22.0572 40.8704 87.4549 0
M  V30 19 C  22.6972 40.6097 86.2283 0
M  V30 20 C  22.6506 39.3286 85.6758 0
M  V30 21 S  23.6098 41.8159 85.2477 0
M  V30 22 O  23.7487 43.0570 86.0203 0
M  V30 23 O  24.8093 41.1118 84.7734 0
M  V30 24 C  22.4645 42.1189 83.7533 0
M  V30 25 F  23.2265 42.3567 82.6881 0
M  V30 26 F  21.7217 41.0344 83.5373 0
M  V30 27 F  21.6832 43.1548 84.0367 0
M  V30 28 C  21.3835 39.8130 88.0830 0
M  V30 29 C  21.3485 38.5324 87.5262 0
M  V30 30 C  21.9986 38.2808 86.3219 0
M  V30 31 S  21.9965 36.6362 85.5911 0
M  V30 32 O  21.7225 35.7380 86.7186 0
M  V30 33 O  20.9858 36.7329 84.5292 0
M  V30 34 N  23.4889 36.6003 85.1157 0 CHG=-1
M  V30 35 C  23.8730 35.9607 84.0422 0
M  V30 36 O  23.1936 35.2460 83.3039 0
M  V30 37 C  25.3297 36.1944 83.6910 0
M  V30 38 C  26.0726 35.1596 83.1176 0
M  V30 39 C  27.4254 35.3331 82.8432 0
M  V30 40 C  28.0711 36.5510 83.0926 0
M  V30 41 C  27.3126 37.6029 83.6217 0
M  V30 42 C  25.9662 37.4256 83.9274 0
M  V30 43 N  29.4400 36.6785 82.8527 0
M  V30 44 C  30.1462 35.9516 81.7865 0
M  V30 45 C  31.3590 35.2243 82.3956 0
M  V30 46 C  32.3766 36.2229 82.9850 0
M  V30 47 C  31.6498 37.2314 83.9004 0
M  V30 48 C  30.3069 37.7650 83.3501 0
M  V30 49 C  33.6423 35.5652 83.6237 0 CFG=1
M  V30 50 O  33.2831 34.9177 84.8431 0
M  V30 51 C  34.4078 34.6616 82.6290 0
M  V30 52 C  34.4230 33.2705 82.8267 0
M  V30 53 C  35.0543 32.4227 81.9213 0
M  V30 54 C  35.6740 32.9516 80.7949 0
M  V30 55 C  35.6717 34.3270 80.5822 0
M  V30 56 C  35.0582 35.1994 81.4892 0
M  V30 57 C  35.0748 36.6557 81.1877 0
M  V30 58 C  35.7581 37.5471 82.0209 0
M  V30 59 C  35.7042 38.9169 81.7831 0
M  V30 60 C  34.9754 39.4024 80.7006 0
M  V30 61 Cl 34.8755 41.1066 80.4429 0
M  V30 62 C  34.3183 38.5250 79.8388 0
M  V30 63 C  34.3771 37.1534 80.0804 0
M  V30 64 H  24.3161 41.3582 91.9184 0
M  V30 65 H  24.3328 39.2652 93.2437 0
M  V30 66 H  22.4837 38.7587 94.7770 0
M  V30 67 H  20.6350 40.3553 95.0840 0
M  V30 68 H  20.6030 42.4696 93.7824 0
M  V30 69 H  22.9612 44.2352 89.6589 0
M  V30 70 H  23.6428 42.6860 90.0458 0
M  V30 71 H  21.3040 41.7226 89.9175 0
M  V30 72 H  20.6278 44.3378 88.5299 0
M  V30 73 H  19.6255 42.9238 88.4893 0
M  V30 74 H  19.4664 43.1591 91.1065 0
M  V30 75 H  20.1398 44.7713 90.8869 0
M  V30 76 H  17.2084 44.0540 91.9016 0
M  V30 77 H  16.1102 44.1984 90.4783 0
M  V30 78 H  17.1325 42.7491 90.6473 0
M  V30 79 H  16.9910 46.2756 90.1358 0
M  V30 80 H  18.5366 46.3990 91.0137 0
M  V30 81 H  19.6976 46.4303 88.6739 0
M  V30 82 H  18.0838 46.3566 87.9467 0
M  V30 83 H  18.4705 48.3587 87.9018 0
M  V30 84 H  22.6212 42.8517 87.4803 0
M  V30 85 H  23.1346 39.1433 84.7270 0
M  V30 86 H  20.8831 39.9574 89.0215 0
M  V30 87 H  20.8277 37.7332 88.0369 0
M  V30 88 H  25.6183 34.1989 82.9200 0
M  V30 89 H  27.9720 34.4930 82.4415 0
M  V30 90 H  27.7543 38.5679 83.8159 0
M  V30 91 H  25.4217 38.2585 84.3506 0
M  V30 92 H  29.5118 35.2515 81.2445 0
M  V30 93 H  30.4888 36.6706 81.0407 0
M  V30 94 H  31.0321 34.5367 83.1768 0
M  V30 95 H  31.8353 34.5926 81.6460 0
M  V30 96 H  32.6785 36.8299 82.1349 0
M  V30 97 H  32.3173 38.0511 84.1653 0
M  V30 98 H  31.4213 36.7567 84.8440 0
M  V30 99 H  30.4840 38.4951 82.5619 0
M  V30 100 H  29.8175 38.2896 84.1703 0
M  V30 101 H  34.3157 36.3642 83.9295 0
M  V30 102 H  34.0709 34.5588 85.2737 0
M  V30 103 H  33.9371 32.8269 83.6856 0
M  V30 104 H  35.0505 31.3565 82.0900 0
M  V30 105 H  36.1576 32.2942 80.0862 0
M  V30 106 H  36.1554 34.7207 79.6989 0
M  V30 107 H  36.3153 37.1766 82.8690 0
M  V30 108 H  36.2148 39.6017 82.4439 0
M  V30 109 H  33.7537 38.9039 78.9991 0
M  V30 110 H  33.8429 36.4770 79.4286 0
M  V30 111 H  18.0255 44.2688 89.0643 0
M  V30 END ATOM
M  V30 BEGIN BOND
M  V30 1 2 1 2
M  V30 2 1 1 6
M  V30 3 1 1 64
M  V30 4 1 2 3
M  V30 5 1 2 65
M  V30 6 2 3 4
M  V30 7 1 3 66
M  V30 8 1 4 5
M  V30 9 1 4 67
M  V30 10 2 5 6
M  V30 11 1 5 68
M  V30 12 1 6 7
M  V30 13 1 7 8
M  V30 14 1 8 9
M  V30 15 1 8 69
M  V30 16 1 8 70
M  V30 17 1 9 10
M  V30 18 1 9 17
M  V30 19 1 9 71
M  V30 20 1 10 11
M  V30 21 1 10 72
M  V30 22 1 10 73
M  V30 23 1 11 12
M  V30 24 1 11 74
M  V30 25 1 11 75
M  V30 26 1 12 13
M  V30 27 1 12 14
M  V30 28 1 12 111
M  V30 29 1 13 76
M  V30 30 1 13 77
M  V30 31 1 13 78
M  V30 32 1 14 15
M  V30 33 1 14 79
M  V30 34 1 14 80
M  V30 35 1 15 16
M  V30 36 1 15 81
M  V30 37 1 15 82
M  V30 38 1 16 83
M  V30 39 1 17 18
M  V30 40 1 17 84
M  V30 41 2 18 19
M  V30 42 1 18 28
M  V30 43 1 19 20
M  V30 44 1 19 21
M  V30 45 2 20 30
M  V30 46 1 20 85
M  V30 47 2 21 22
M  V30 48 2 21 23
M  V30 49 1 21 24
M  V30 50 1 24 25
M  V30 51 1 24 26
M  V30 52 1 24 27
M  V30 53 2 28 29
M  V30 54 1 28 86
M  V30 55 1 29 30
M  V30 56 1 29 87
M  V30 57 1 30 31
M  V30 58 2 31 32
M  V30 59 2 31 33
M  V30 60 1 31 34
M  V30 61 1 34 35
M  V30 62 2 35 36
M  V30 63 1 35 37
M  V30 64 2 37 38
M  V30 65 1 37 42
M  V30 66 1 38 39
M  V30 67 1 38 88
M  V30 68 2 39 40
M  V30 69 1 39 89
M  V30 70 1 40 41
M  V30 71 1 40 43
M  V30 72 2 41 42
M  V30 73 1 41 90
M  V30 74 1 42 91
M  V30 75 1 43 44
M  V30 76 1 43 48
M  V30 77 1 44 45
M  V30 78 1 44 92
M  V30 79 1 44 93
M  V30 80 1 45 46
M  V30 81 1 45 94
M  V30 82 1 45 95
M  V30 83 1 46 47
M  V30 84 1 46 49
M  V30 85 1 46 96
M  V30 86 1 47 48
M  V30 87 1 47 97
M  V30 88 1 47 98
M  V30 89 1 48 99
M  V30 90 1 48 100
M  V30 91 1 49 50
M  V30 92 1 49 51
M  V30 93 1 49 101
M  V30 94 1 50 102
M  V30 95 2 51 52
M  V30 96 1 51 56
M  V30 97 1 52 53
M  V30 98 1 52 103
M  V30 99 2 53 54
M  V30 100 1 53 104
M  V30 101 1 54 55
M  V30 102 1 54 105
M  V30 103 2 55 56
M  V30 104 1 55 106
M  V30 105 1 56 57
M  V30 106 2 57 58
M  V30 107 1 57 63
M  V30 108 1 58 59
M  V30 109 1 58 107
M  V30 110 2 59 60
M  V30 111 1 59 108
M  V30 112 1 60 61
M  V30 113 1 60 62
M  V30 114 2 62 63
M  V30 115 1 62 109
M  V30 116 1 63 110
M  V30 END BOND
M  V30 END CTAB
M  END
> <s_m_entry_id>
1388

> <s_m_entry_name>
result.1289

> <s_m_Source_Path>
D:\OneDrive - zju.edu.cn\DOC\A-Finished\LCK_VS\Planet\LCK-8617

> <s_m_Source_File>
glide-dock_SP_top1262_2_pv.maegz

> <i_m_Source_File_Index>
1388

> <PLANET_affinity>
9.574

> <i_lp_mmshare_version>
54117

> <i_f3d_flags>
0

> <s_epik_input>
W2NIXTFbY0hdW2NIXVtjSF1bY0hdYzFTW0NIMl1bQ0BASF0oW0NIMl1bQ0gyXU4oW0NIM10pW0NIMl1bQ0gyXVtPSF0pW05IXWMyYyhTKD1PKSg9TylDKEYpKEYpRilbY0hdYyhbY0hdW2NIXTIpUyg9TykoPU8pW05IXUMoPU8pYzNbY0hdW2NIXWMoW2NIXVtjSF0zKU40W0NIMl1bQ0gyXVtDSF0oW0NIMl1bQ0gyXTQpW0NAQEhdKFtPSF0pYzVbY0hdW2NIXVtjSF1bY0hdYzUtYzZbY0hdW2NIXWMoQ2wpW2NIXVtjSF02

> <s_epik_cmdline>
J2VwaWtfcHl0aG9uJywgJy1waCcsICc3LjAnLCAnLXRuJywgJzgnLCAnLW1hJywgJzUwMCcsICctaW1hZScsICc8aW5maWxlLm1hZT4nLCAnLW9tYWUnLCAnPG91dGZpbGUubWFlPic=

> <r_epik_Ionization_Penalty>
  0.0413

> <r_epik_Ionization_Penalty_Charging>
  0.0409

> <r_epik_Ionization_Penalty_Neutral>
  0.0004

> <r_epik_State_Penalty>
  0.0337

> <r_epik_Charging_Adjusted_Penalty>
0.0745348

> <i_epik_Tot_Q>
0

> <i_epik_Tot_abs_Q>
2

> <s_lp_Force_Field>
S-OPLS

> <r_lp_Energy>
84.8941

> <b_lp_Chiralities_Consistent>
1

> <s_lp_Variant>
O=C(NS(=O)(C1=CC=C(N[C@H](CCN(CCO)C)CSC2=CC=CC=C2)C(S(=O)(C(F)(F)F)=O)=C1)=O)...-2

> <s_i_glide_gridfile>
glide-grid_1

> <i_i_glide_lignum>
324

> <i_i_glide_rotatable_bonds>
22

> <r_i_docking_score>
-7.30086491056493

> <r_i_glide_ligand_efficiency>
-0.115886744612142

> <r_i_glide_ligand_efficiency_sa>
-0.461119985811764

> <r_i_glide_ligand_efficiency_ln>
-1.41953600264469

> <r_i_glide_gscore>
-7.33456491056493

> <r_i_glide_lipo>
-3.03390160447641

> <r_i_glide_hbond>
-0.426619743259364

> <r_i_glide_metal>
0

> <r_i_glide_rewards>
0.803193841795375

> <r_i_glide_evdw>
-65.4127578735352

> <r_i_glide_ecoul>
-9.34394931793213

> <r_i_glide_erotb>
0.225261733723971

> <r_i_glide_esite>
-0.230268846981932

> <r_i_glide_emodel>
-95.2749893089

> <r_i_glide_energy>
-74.7567071914673

> <r_i_glide_einternal>
20.8953399658203

> <i_i_glide_confnum>
283

> <i_i_glide_posenum>
348

> <r_i_glide_eff_state_penalty>
0.0337

> <s_m_subgroup_title>
glide-dock_SP_top1262_2_pv

> <s_m_subgroupid>
glide-dock_SP_top1262_2_pv

> <b_m_subgroup_collapsed>
0

$$$$
OC1=C(F)C=C(C2=C(C3=CC=C(N4CCOCC4)C=C3)C=CN=C2)C=C1F
                    3D
 Schrodinger Suite 2021-3.
  0  0  0     0  0            999 V3000
M  V30 BEGIN CTAB
M  V30 COUNTS 45 48 0 0 0
M  V30 BEGIN ATOM
M  V30 1 O  18.4227 37.5568 86.4228 0
M  V30 2 C  19.6508 37.2464 85.8921 0
M  V30 3 C  20.6867 36.8023 86.7171 0
M  V30 4 F  20.4768 36.6811 88.0435 0
M  V30 5 C  21.9396 36.4913 86.1802 0
M  V30 6 C  22.1783 36.6285 84.8079 0
M  V30 7 C  21.1230 37.0544 83.9964 0
M  V30 8 C  19.8722 37.3687 84.5210 0
M  V30 9 F  18.8882 37.7955 83.6936 0
M  V30 10 C  23.5114 36.3622 84.1900 0
M  V30 11 C  24.7133 37.0160 84.5717 0
M  V30 12 C  25.8867 36.7063 83.8638 0
M  V30 13 C  25.8475 35.7847 82.8208 0
M  V30 14 N  24.7115 35.1566 82.4457 0
M  V30 15 C  23.5777 35.4514 83.1249 0
M  V30 16 C  24.8000 38.0149 85.6829 0
M  V30 17 C  25.8373 37.9274 86.6156 0
M  V30 18 C  25.8900 38.7806 87.7104 0
M  V30 19 C  24.9080 39.7575 87.9069 0
M  V30 20 C  23.9078 39.8939 86.9330 0
M  V30 21 C  23.8648 39.0452 85.8285 0
M  V30 22 N  24.9079 40.5098 89.0826 0
M  V30 23 C  26.1495 41.1278 89.5855 0
M  V30 24 C  26.0847 41.4376 91.0977 0
M  V30 25 O  24.9690 42.2722 91.3757 0
M  V30 26 C  23.7450 41.6614 90.9935 0
M  V30 27 C  23.7541 41.3380 89.4823 0
M  V30 28 H  18.3824 37.4563 87.3773 0
M  V30 29 H  22.7321 36.1588 86.8344 0
M  V30 30 H  21.2830 37.1566 82.9342 0
M  V30 31 H  26.8238 37.1842 84.1101 0
M  V30 32 H  26.7408 35.5435 82.2604 0
M  V30 33 H  22.6937 34.9218 82.7957 0
M  V30 34 H  26.5894 37.1596 86.5240 0
M  V30 35 H  26.6749 38.6299 88.4354 0
M  V30 36 H  23.1436 40.6508 87.0249 0
M  V30 37 H  23.0757 39.1721 85.1020 0
M  V30 38 H  27.0044 40.4737 89.4232 0
M  V30 39 H  26.3540 42.0376 89.0175 0
M  V30 40 H  26.9914 41.9544 91.4117 0
M  V30 41 H  26.0341 40.5167 91.6831 0
M  V30 42 H  22.9285 42.3478 91.2201 0
M  V30 43 H  23.5666 40.7604 91.5849 0
M  V30 44 H  23.7317 42.2541 88.8894 0
M  V30 45 H  22.8333 40.7966 89.2645 0
M  V30 END ATOM
M  V30 BEGIN BOND
M  V30 1 1 1 2
M  V30 2 1 1 28
M  V30 3 2 2 3
M  V30 4 1 2 8
M  V30 5 1 3 4
M  V30 6 1 3 5
M  V30 7 2 5 6
M  V30 8 1 5 29
M  V30 9 1 6 7
M  V30 10 1 6 10
M  V30 11 2 7 8
M  V30 12 1 7 30
M  V30 13 1 8 9
M  V30 14 1 10 11
M  V30 15 2 10 15
M  V30 16 2 11 12
M  V30 17 1 11 16
M  V30 18 1 12 13
M  V30 19 1 12 31
M  V30 20 2 13 14
M  V30 21 1 13 32
M  V30 22 1 14 15
M  V30 23 1 15 33
M  V30 24 2 16 17
M  V30 25 1 16 21
M  V30 26 1 17 18
M  V30 27 1 17 34
M  V30 28 2 18 19
M  V30 29 1 18 35
M  V30 30 1 19 20
M  V30 31 1 19 22
M  V30 32 2 20 21
M  V30 33 1 20 36
M  V30 34 1 21 37
M  V30 35 1 22 23
M  V30 36 1 22 27
M  V30 37 1 23 24
M  V30 38 1 23 38
M  V30 39 1 23 39
M  V30 40 1 24 25
M  V30 41 1 24 40
M  V30 42 1 24 41
M  V30 43 1 25 26
M  V30 44 1 26 27
M  V30 45 1 26 42
M  V30 46 1 26 43
M  V30 47 1 27 44
M  V30 48 1 27 45
M  V30 END BOND
M  V30 END CTAB
M  END
> <s_m_entry_id>
1389

> <s_m_entry_name>
result.2171

> <s_m_Source_Path>
D:\OneDrive - zju.edu.cn\DOC\A-Finished\LCK_VS\Planet\LCK-8617

> <s_m_Source_File>
glide-dock_SP_top1262_2_pv.maegz

> <i_m_Source_File_Index>
1389

> <PLANET_affinity>
7.117

> <i_lp_mmshare_version>
54117

> <i_f3d_flags>
0

> <s_epik_input>
W09IXWMxYyhGKVtjSF1jKFtjSF1jMUYpLWMyYyhbY0hdW2NIXW5bY0hdMiktYzNbY0hdW2NIXWMoW2NIXVtjSF0zKU40W0NIMl1bQ0gyXU9bQ0gyXVtDSDJdNA==

> <s_epik_cmdline>
J2VwaWtfcHl0aG9uJywgJy1waCcsICc3LjAnLCAnLXRuJywgJzgnLCAnLW1hJywgJzUwMCcsICctaW1hZScsICc8aW5maWxlLm1hZT4nLCAnLW9tYWUnLCAnPG91dGZpbGUubWFlPic=

> <r_epik_Ionization_Penalty>
  0.3051

> <r_epik_Ionization_Penalty_Charging>
  0.0000

> <r_epik_Ionization_Penalty_Neutral>
  0.3051

> <r_epik_State_Penalty>
  0.3685

> <r_epik_Charging_Adjusted_Penalty>
0.368497

> <i_epik_Tot_Q>
0

> <i_epik_Tot_abs_Q>
0

> <s_lp_Force_Field>
S-OPLS

> <r_lp_Energy>
47.1853

> <b_lp_Chiralities_Consistent>
1

> <s_lp_Variant>
OC1=C(F)C=C(C2=C(C3=CC=C(N4CCOCC4)C=C3)C=CN=C2)C=C1F-1

> <s_i_glide_gridfile>
glide-grid_1

> <i_i_glide_lignum>
2502

> <i_i_glide_rotatable_bonds>
4

> <r_i_docking_score>
-7.30073125062672

> <r_i_glide_ligand_efficiency>
-0.270397453726916

> <r_i_glide_ligand_efficiency_sa>
-0.811192360289561

> <r_i_glide_ligand_efficiency_ln>
-1.69948987318444

> <r_i_glide_gscore>
-7.66923125062672

> <r_i_glide_lipo>
-3.27090797276516

> <r_i_glide_hbond>
-0.250421983752352

> <r_i_glide_metal>
0

> <r_i_glide_rewards>
-2.46073839569315

> <r_i_glide_evdw>
-35.7623596191406

> <r_i_glide_ecoul>
-2.16690373420715

> <r_i_glide_erotb>
0.425990642672044

> <r_i_glide_esite>
0

> <r_i_glide_emodel>
-56.0303164914489

> <r_i_glide_energy>
-37.9292633533478

> <r_i_glide_einternal>
0.419983714818954

> <i_i_glide_confnum>
15

> <i_i_glide_posenum>
23

> <r_i_glide_eff_state_penalty>
0.3685

> <r_lp_tautomer_probability>
1

> <s_m_subgroup_title>
glide-dock_SP_top1262_2_pv

> <s_m_subgroupid>
glide-dock_SP_top1262_2_pv

> <b_m_subgroup_collapsed>
0

$$$$
O=C(N1C[C@]2([H])N(C)CC[C@]2([H])C1)NC3=CC4=C(NC5=CC=CC(C#C)=C5)N=CN=C4C=C3OC
                    3D
 Schrodinger Suite 2021-3.
  0  0  0     0  0            999 V3000
M  V30 BEGIN CTAB
M  V30 COUNTS 60 64 0 0 0
M  V30 BEGIN ATOM
M  V30 1 C  31.9700 42.2906 85.9178 0
M  V30 2 N  30.5975 41.9458 86.5269 0 CHG=1 CFG=1
M  V30 3 C  30.6577 41.6954 88.0385 0
M  V30 4 C  29.1920 41.7356 88.4413 0
M  V30 5 C  28.5346 42.7578 87.5006 0 CFG=1
M  V30 6 C  29.5199 43.0422 86.3627 0 CFG=2
M  V30 7 C  27.2678 42.2198 86.8034 0
M  V30 8 N  27.6419 41.9830 85.3956 0
M  V30 9 C  28.7091 42.9348 85.0708 0
M  V30 10 C  27.6058 40.7845 84.7535 0
M  V30 11 O  27.9534 40.6845 83.5722 0
M  V30 12 N  27.0975 39.7467 85.4626 0
M  V30 13 C  26.6411 38.5461 84.8927 0
M  V30 14 C  25.2915 38.2383 85.0836 0
M  V30 15 C  27.4788 37.7036 84.1380 0
M  V30 16 O  28.8345 37.9855 84.1035 0
M  V30 17 C  29.7291 37.0783 83.4657 0
M  V30 18 C  26.9080 36.6256 83.4479 0
M  V30 19 C  25.5269 36.3540 83.5392 0
M  V30 20 C  24.7046 37.1387 84.4056 0
M  V30 21 N  25.0174 35.3537 82.7696 0
M  V30 22 C  23.6829 35.1564 82.8458 0
M  V30 23 N  22.8126 35.8001 83.6531 0
M  V30 24 C  23.3192 36.7803 84.4432 0
M  V30 25 N  22.4077 37.4544 85.2771 0
M  V30 26 C  21.0054 37.5255 85.2039 0
M  V30 27 C  20.3438 37.6132 83.9747 0
M  V30 28 C  18.9636 37.7816 83.9044 0
M  V30 29 C  18.2181 37.8235 85.0743 0
M  V30 30 C  18.8575 37.6788 86.3057 0
M  V30 31 C  20.2495 37.5591 86.3766 0
M  V30 32 C  18.0481 37.6202 87.4999 0
M  V30 33 C  17.2830 37.5566 88.4436 0
M  V30 34 H  32.3117 43.2404 86.3326 0
M  V30 35 H  31.8206 42.3565 84.8433 0
M  V30 36 H  32.6518 41.4749 86.1603 0
M  V30 37 H  31.1805 40.7567 88.2166 0
M  V30 38 H  31.2477 42.5076 88.4690 0
M  V30 39 H  28.7525 40.7415 88.3466 0
M  V30 40 H  29.0897 42.0322 89.4861 0
M  V30 41 H  28.3000 43.6798 88.0372 0
M  V30 42 H  30.0598 43.9876 86.4590 0
M  V30 43 H  26.7203 41.4402 87.3335 0
M  V30 44 H  26.5776 43.0651 86.7750 0
M  V30 45 H  28.1963 43.8870 84.9255 0
M  V30 46 H  29.2835 42.7540 84.1612 0
M  V30 47 H  26.8025 39.9293 86.4082 0
M  V30 48 H  24.6666 38.8831 85.6849 0
M  V30 49 H  30.7515 37.4338 83.5926 0
M  V30 50 H  29.5367 37.0110 82.3940 0
M  V30 51 H  29.6714 36.0807 83.9041 0
M  V30 52 H  27.5027 35.9895 82.8090 0
M  V30 53 H  23.2831 34.3609 82.2357 0
M  V30 54 H  22.8249 38.0434 85.9795 0
M  V30 55 H  20.8903 37.5567 83.0513 0
M  V30 56 H  18.4744 37.8630 82.9445 0
M  V30 57 H  17.1438 37.9373 85.0178 0
M  V30 58 H  20.7405 37.4683 87.3349 0
M  V30 59 H  16.5839 37.5566 89.2428 0
M  V30 60 H  30.2575 41.0959 86.0950 0
M  V30 END ATOM
M  V30 BEGIN BOND
M  V30 1 1 1 2
M  V30 2 1 1 34
M  V30 3 1 1 35
M  V30 4 1 1 36
M  V30 5 1 2 3
M  V30 6 1 2 6
M  V30 7 1 2 60
M  V30 8 1 3 4
M  V30 9 1 3 37
M  V30 10 1 3 38
M  V30 11 1 4 5
M  V30 12 1 4 39
M  V30 13 1 4 40
M  V30 14 1 5 6
M  V30 15 1 5 7
M  V30 16 1 5 41
M  V30 17 1 6 9
M  V30 18 1 6 42
M  V30 19 1 7 8
M  V30 20 1 7 43
M  V30 21 1 7 44
M  V30 22 1 8 9
M  V30 23 1 8 10
M  V30 24 1 9 45
M  V30 25 1 9 46
M  V30 26 2 10 11
M  V30 27 1 10 12
M  V30 28 1 12 13
M  V30 29 1 12 47
M  V30 30 2 13 14
M  V30 31 1 13 15
M  V30 32 1 14 20
M  V30 33 1 14 48
M  V30 34 1 15 16
M  V30 35 2 15 18
M  V30 36 1 16 17
M  V30 37 1 17 49
M  V30 38 1 17 50
M  V30 39 1 17 51
M  V30 40 1 18 19
M  V30 41 1 18 52
M  V30 42 2 19 20
M  V30 43 1 19 21
M  V30 44 1 20 24
M  V30 45 2 21 22
M  V30 46 1 22 23
M  V30 47 1 22 53
M  V30 48 2 23 24
M  V30 49 1 24 25
M  V30 50 1 25 26
M  V30 51 1 25 54
M  V30 52 2 26 27
M  V30 53 1 26 31
M  V30 54 1 27 28
M  V30 55 1 27 55
M  V30 56 2 28 29
M  V30 57 1 28 56
M  V30 58 1 29 30
M  V30 59 1 29 57
M  V30 60 2 30 31
M  V30 61 1 30 32
M  V30 62 1 31 58
M  V30 63 3 32 33
M  V30 64 1 33 59
M  V30 END BOND
M  V30 END CTAB
M  END
> <s_m_entry_id>
1390

> <s_m_entry_name>
result.4481

> <s_m_Source_Path>
D:\OneDrive - zju.edu.cn\DOC\A-Finished\LCK_VS\Planet\LCK-8617

> <s_m_Source_File>
glide-dock_SP_top1262_2_pv.maegz

> <i_m_Source_File_Index>
1390

> <PLANET_affinity>
8.141

> <i_lp_mmshare_version>
54117

> <i_f3d_flags>
0

> <s_epik_input>
W0NIMl0xW0NIMl1OKFtDSDNdKVtDQEhdKFtDQEhdMTIpW0NIMl1OKFtDSDJdMilDKD1PKVtOSF1jKGMoW2NIXTMpT1tDSDNdKVtjSF1jKGMzNCljKG5bY0hdbjQpW05IXWM1W2NIXVtjSF1bY0hdYyhbY0hdNSlDI1tDSF0=

> <s_epik_cmdline>
J2VwaWtfcHl0aG9uJywgJy1waCcsICc3LjAnLCAnLXRuJywgJzgnLCAnLW1hJywgJzUwMCcsICctaW1hZScsICc8aW5maWxlLm1hZT4nLCAnLW9tYWUnLCAnPG91dGZpbGUubWFlPic=

> <r_epik_Ionization_Penalty>
  0.0061

> <r_epik_Ionization_Penalty_Charging>
  0.0045

> <r_epik_Ionization_Penalty_Neutral>
  0.0016

> <r_epik_State_Penalty>
  0.0000

> <r_epik_Charging_Adjusted_Penalty>
0.00449526

> <i_epik_Tot_Q>
1

> <i_epik_Tot_abs_Q>
1

> <s_lp_Force_Field>
S-OPLS

> <r_lp_Energy>
59.5581

> <b_lp_Chiralities_Consistent>
1

> <s_lp_Variant>
O=C(N1C[C@]2([H])N(C)CC[C@]2([H])C1)NC3=CC4=C(NC5=CC=CC(C#C)=C5)N=CN=C4C=C3OC-1

> <s_i_glide_gridfile>
glide-grid_1

> <i_i_glide_lignum>
1175

> <i_i_glide_rotatable_bonds>
7

> <r_i_docking_score>
-7.29853104845108

> <r_i_glide_ligand_efficiency>
-0.221167607528821

> <r_i_glide_ligand_efficiency_sa>
-0.709402693004925

> <r_i_glide_ligand_efficiency_ln>
-1.62315551540422

> <r_i_glide_gscore>
-7.29853104845108

> <r_i_glide_lipo>
-3.00621927344278

> <r_i_glide_hbond>
-0.0369110669440436

> <r_i_glide_metal>
0

> <r_i_glide_rewards>
-1.59999781027366

> <r_i_glide_evdw>
-40.733715057373

> <r_i_glide_ecoul>
-8.13178443908691

> <r_i_glide_erotb>
0.609799454848641

> <r_i_glide_esite>
-0.00874893390755079

> <r_i_glide_emodel>
-69.732163409824

> <r_i_glide_energy>
-48.86549949646

> <r_i_glide_einternal>
7.76835918426514

> <i_i_glide_confnum>
38

> <i_i_glide_posenum>
147

> <r_i_glide_eff_state_penalty>
0

> <r_lp_tautomer_probability>
1

> <s_m_subgroup_title>
glide-dock_SP_top1262_2_pv

> <s_m_subgroupid>
glide-dock_SP_top1262_2_pv

> <b_m_subgroup_collapsed>
0

$$$$
O=S(C1=CC=C(/N=C2SC=C(C3=CC=C(Cl)C=C3Cl)N\2CC)C=C1)(N)=O
                    3D
 Schrodinger Suite 2021-3.
  0  0  0     0  0            999 V3000
M  V30 BEGIN CTAB
M  V30 COUNTS 42 44 0 0 0
M  V30 BEGIN ATOM
M  V30 1 O  31.9827 37.4268 81.5038 0
M  V30 2 S  31.7368 36.5290 82.6357 0
M  V30 3 O  32.5407 36.6119 83.8600 0
M  V30 4 N  31.8560 34.8927 82.0438 0
M  V30 5 C  30.0355 36.7719 83.1276 0
M  V30 6 C  28.9965 36.1270 82.4566 0
M  V30 7 C  27.6775 36.3573 82.8427 0
M  V30 8 C  27.3864 37.2322 83.9012 0
M  V30 9 C  28.4414 37.8792 84.5537 0
M  V30 10 C  29.7596 37.6468 84.1758 0
M  V30 11 N  26.0699 37.5547 84.3721 0
M  V30 12 C  24.8390 36.9717 84.1900 0
M  V30 13 S  24.4967 35.5566 83.2313 0
M  V30 14 C  22.8090 35.5961 83.6447 0
M  V30 15 C  22.5186 36.6492 84.5057 0
M  V30 16 N  23.6477 37.4517 84.7609 0 CHG=1
M  V30 17 C  23.5624 38.7180 85.5255 0
M  V30 18 C  23.9460 38.5363 87.0034 0
M  V30 19 C  21.1776 36.9256 85.1040 0
M  V30 20 C  20.2536 37.6735 84.3663 0
M  V30 21 C  19.0084 37.9902 84.9069 0
M  V30 22 C  18.6745 37.5573 86.1875 0
M  V30 23 Cl 17.1345 37.9543 86.8503 0
M  V30 24 C  19.5767 36.7858 86.9196 0
M  V30 25 C  20.8225 36.4589 86.3812 0
M  V30 26 Cl 21.8914 35.4655 87.3103 0
M  V30 27 H  31.5676 34.1670 82.7078 0
M  V30 28 H  31.4774 34.7574 81.0951 0
M  V30 29 H  29.1972 35.4663 81.6246 0
M  V30 30 H  26.9178 35.8687 82.2564 0
M  V30 31 H  28.2630 38.5689 85.3701 0
M  V30 32 H  30.5610 38.1536 84.6966 0
M  V30 33 H  26.0713 38.3160 85.0326 0
M  V30 34 H  22.1405 34.8333 83.2649 0
M  V30 35 H  24.2085 39.4570 85.0531 0
M  V30 36 H  22.5574 39.1336 85.4396 0
M  V30 37 H  24.0047 39.5036 87.5053 0
M  V30 38 H  23.1954 37.9563 87.5364 0
M  V30 39 H  24.9115 38.0468 87.1240 0
M  V30 40 H  20.4976 38.0221 83.3740 0
M  V30 41 H  18.3010 38.5739 84.3345 0
M  V30 42 H  19.3076 36.4322 87.9035 0
M  V30 END ATOM
M  V30 BEGIN BOND
M  V30 1 2 1 2
M  V30 2 2 2 3
M  V30 3 1 2 4
M  V30 4 1 2 5
M  V30 5 1 4 27
M  V30 6 1 4 28
M  V30 7 2 5 6
M  V30 8 1 5 10
M  V30 9 1 6 7
M  V30 10 1 6 29
M  V30 11 2 7 8
M  V30 12 1 7 30
M  V30 13 1 8 9
M  V30 14 1 8 11
M  V30 15 2 9 10
M  V30 16 1 9 31
M  V30 17 1 10 32
M  V30 18 1 11 12
M  V30 19 1 11 33
M  V30 20 1 12 13
M  V30 21 2 12 16
M  V30 22 1 13 14
M  V30 23 2 14 15
M  V30 24 1 14 34
M  V30 25 1 15 16
M  V30 26 1 15 19
M  V30 27 1 16 17
M  V30 28 1 17 18
M  V30 29 1 17 35
M  V30 30 1 17 36
M  V30 31 1 18 37
M  V30 32 1 18 38
M  V30 33 1 18 39
M  V30 34 2 19 20
M  V30 35 1 19 25
M  V30 36 1 20 21
M  V30 37 1 20 40
M  V30 38 2 21 22
M  V30 39 1 21 41
M  V30 40 1 22 23
M  V30 41 1 22 24
M  V30 42 2 24 25
M  V30 43 1 24 42
M  V30 44 1 25 26
M  V30 END BOND
M  V30 END CTAB
M  END
> <s_m_entry_id>
1398

> <s_m_entry_name>
result.627

> <s_m_Source_Path>
D:\OneDrive - zju.edu.cn\DOC\A-Finished\LCK_VS\Planet\LCK-8617

> <s_m_Source_File>
glide-dock_SP_top1262_2_pv.maegz

> <i_m_Source_File_Index>
1398

> <PLANET_affinity>
7.224

> <i_lp_mmshare_version>
54117

> <i_f3d_flags>
0

> <s_epik_input>
Tz1TKD1PKShbTkgyXSljMVtjSF1bY0hdYyhbY0hdW2NIXTEpW05IXWMyc1tjSF1jKFtuK10yW0NIMl1bQ0gzXSktYzNbY0hdW2NIXWMoQ2wpW2NIXWMzQ2w=

> <s_epik_cmdline>
J2VwaWtfcHl0aG9uJywgJy1waCcsICc3LjAnLCAnLXRuJywgJzgnLCAnLW1hJywgJzUwMCcsICctaW1hZScsICc8aW5maWxlLm1hZT4nLCAnLW9tYWUnLCAnPG91dGZpbGUubWFlPic=

> <r_epik_Ionization_Penalty>
  0.0494

> <r_epik_Ionization_Penalty_Charging>
  0.0000

> <r_epik_Ionization_Penalty_Neutral>
  0.0494

> <r_epik_State_Penalty>
  0.0418

> <r_epik_Charging_Adjusted_Penalty>
0.0417874

> <i_epik_Tot_Q>
1

> <i_epik_Tot_abs_Q>
1

> <s_lp_Force_Field>
S-OPLS

> <r_lp_Energy>
29.5778

> <b_lp_Chiralities_Consistent>
1

> <s_lp_Variant>
O=S(C1=CC=C(/N=C2SC=C(C3=CC=C(Cl)C=C3Cl)N\2CC)C=C1)(N)=O-1

> <s_i_glide_gridfile>
glide-grid_1

> <i_i_glide_lignum>
2350

> <i_i_glide_rotatable_bonds>
5

> <r_i_docking_score>
-7.29400252074568

> <r_i_glide_ligand_efficiency>
-0.280538558490219

> <r_i_glide_ligand_efficiency_sa>
-0.831094375661349

> <r_i_glide_ligand_efficiency_ln>
-1.71297255842274

> <r_i_glide_gscore>
-7.33580252074568

> <r_i_glide_lipo>
-3.68967109553464

> <r_i_glide_hbond>
-0.49856509551525

> <r_i_glide_metal>
0

> <r_i_glide_rewards>
-0.351609161725516

> <r_i_glide_evdw>
-41.8385276794434

> <r_i_glide_ecoul>
-6.61122608184814

> <r_i_glide_erotb>
0.323373953324577

> <r_i_glide_esite>
-0.0357208250454658

> <r_i_glide_emodel>
-65.4588450135621

> <r_i_glide_energy>
-48.4497537612915

> <r_i_glide_einternal>
6.45157909393311

> <i_i_glide_confnum>
12

> <i_i_glide_posenum>
274

> <r_i_glide_eff_state_penalty>
0.0418

> <r_lp_tautomer_probability>
1

> <s_m_subgroup_title>
glide-dock_SP_top1262_2_pv

> <s_m_subgroupid>
glide-dock_SP_top1262_2_pv

> <b_m_subgroup_collapsed>
0

$$$$
O=C(C1=CC=CC=C1C2=CC=C(CN3C4=CC(C5=NC6=CC=CC=C6N5C)=CC(C)=C4N=C3CCC)C=C2)O
                    3D
 Schrodinger Suite 2021-3.
  0  0  0     0  0            999 V3000
M  V30 BEGIN CTAB
M  V30 COUNTS 69 74 0 0 0
M  V30 BEGIN ATOM
M  V30 1 O  21.6388 42.3426 90.2200 0
M  V30 2 C  22.3439 41.3143 90.1249 0
M  V30 3 O  22.0830 40.3545 89.3642 0 CHG=-1
M  V30 4 C  23.5072 41.1851 91.0628 0
M  V30 5 C  23.2335 41.2046 92.4435 0
M  V30 6 C  24.2436 41.0541 93.3855 0
M  V30 7 C  25.5565 40.8888 92.9649 0
M  V30 8 C  25.8517 40.8812 91.6090 0
M  V30 9 C  24.8539 41.0170 90.6311 0
M  V30 10 C  25.2882 40.9542 89.2000 0
M  V30 11 C  24.9158 41.9309 88.2685 0
M  V30 12 C  25.3354 41.8435 86.9425 0
M  V30 13 C  26.1398 40.7803 86.5267 0
M  V30 14 C  26.5521 39.8245 87.4590 0
M  V30 15 C  26.1222 39.9110 88.7767 0
M  V30 16 C  26.5507 40.6724 85.0582 0
M  V30 17 N  26.5820 39.2991 84.5365 0
M  V30 18 C  27.6602 38.5867 84.0260 0
M  V30 19 C  29.0842 39.1304 83.8995 0
M  V30 20 C  30.2194 38.0995 84.1307 0
M  V30 21 C  30.4182 37.0306 83.0374 0
M  V30 22 N  27.3251 37.3885 83.6174 0
M  V30 23 C  26.0031 37.2503 83.9350 0
M  V30 24 C  25.5027 38.4306 84.5320 0
M  V30 25 C  25.1616 36.1400 83.7455 0
M  V30 26 C  25.6240 34.8721 83.0533 0
M  V30 27 C  23.8513 36.2387 84.2233 0
M  V30 28 C  23.3762 37.3983 84.8453 0
M  V30 29 C  24.1826 38.5341 84.9854 0
M  V30 30 C  21.9870 37.4492 85.3734 0
M  V30 31 N  21.0325 38.3383 84.9561 0 CHG=1
M  V30 32 N  21.4243 36.6710 86.3671 0
M  V30 33 C  22.0964 35.6307 87.1337 0
M  V30 34 C  20.1043 37.0757 86.5609 0
M  V30 35 C  19.8563 38.1218 85.6514 0
M  V30 36 C  19.1136 36.6323 87.4456 0
M  V30 37 C  17.8704 37.2635 87.3661 0
M  V30 38 C  17.6277 38.2873 86.4503 0
M  V30 39 C  18.6118 38.7462 85.5734 0
M  V30 40 H  22.2180 41.3285 92.7992 0
M  V30 41 H  24.0102 41.0563 94.4405 0
M  V30 42 H  26.3468 40.7649 93.6879 0
M  V30 43 H  26.8831 40.7607 91.3168 0
M  V30 44 H  24.2924 42.7607 88.5684 0
M  V30 45 H  25.0187 42.5988 86.2374 0
M  V30 46 H  27.1868 39.0019 87.1633 0
M  V30 47 H  26.4378 39.1567 89.4821 0
M  V30 48 H  25.8429 41.2214 84.4359 0
M  V30 49 H  27.5144 41.1573 84.9203 0
M  V30 50 H  29.2158 39.6089 82.9282 0
M  V30 51 H  29.2576 39.9167 84.6320 0
M  V30 52 H  31.1602 38.6474 84.2225 0
M  V30 53 H  30.0766 37.6071 85.0957 0
M  V30 54 H  31.3303 36.4623 83.2221 0
M  V30 55 H  29.6039 36.3049 83.0169 0
M  V30 56 H  30.5038 37.4743 82.0458 0
M  V30 57 H  24.7937 34.2000 82.8438 0
M  V30 58 H  26.1056 35.1149 82.1074 0
M  V30 59 H  26.3588 34.3546 83.6705 0
M  V30 60 H  23.1885 35.3933 84.1053 0
M  V30 61 H  23.8169 39.4346 85.4612 0
M  V30 62 H  21.5940 34.6738 86.9779 0
M  V30 63 H  23.1417 35.5569 86.8435 0
M  V30 64 H  22.0816 35.8921 88.1901 0
M  V30 65 H  19.2889 35.8380 88.1565 0
M  V30 66 H  17.0752 36.9661 88.0336 0
M  V30 67 H  16.6529 38.7559 86.4421 0
M  V30 68 H  18.4162 39.5564 84.8912 0
M  V30 69 H  21.2183 39.0288 84.2458 0
M  V30 END ATOM
M  V30 BEGIN BOND
M  V30 1 2 1 2
M  V30 2 1 2 3
M  V30 3 1 2 4
M  V30 4 2 4 5
M  V30 5 1 4 9
M  V30 6 1 5 6
M  V30 7 1 5 40
M  V30 8 2 6 7
M  V30 9 1 6 41
M  V30 10 1 7 8
M  V30 11 1 7 42
M  V30 12 2 8 9
M  V30 13 1 8 43
M  V30 14 1 9 10
M  V30 15 2 10 11
M  V30 16 1 10 15
M  V30 17 1 11 12
M  V30 18 1 11 44
M  V30 19 2 12 13
M  V30 20 1 12 45
M  V30 21 1 13 14
M  V30 22 1 13 16
M  V30 23 2 14 15
M  V30 24 1 14 46
M  V30 25 1 15 47
M  V30 26 1 16 17
M  V30 27 1 16 48
M  V30 28 1 16 49
M  V30 29 1 17 18
M  V30 30 1 17 24
M  V30 31 1 18 19
M  V30 32 2 18 22
M  V30 33 1 19 20
M  V30 34 1 19 50
M  V30 35 1 19 51
M  V30 36 1 20 21
M  V30 37 1 20 52
M  V30 38 1 20 53
M  V30 39 1 21 54
M  V30 40 1 21 55
M  V30 41 1 21 56
M  V30 42 1 22 23
M  V30 43 2 23 24
M  V30 44 1 23 25
M  V30 45 1 24 29
M  V30 46 1 25 26
M  V30 47 2 25 27
M  V30 48 1 26 57
M  V30 49 1 26 58
M  V30 50 1 26 59
M  V30 51 1 27 28
M  V30 52 1 27 60
M  V30 53 2 28 29
M  V30 54 1 28 30
M  V30 55 1 29 61
M  V30 56 2 30 31
M  V30 57 1 30 32
M  V30 58 1 31 35
M  V30 59 1 31 69
M  V30 60 1 32 33
M  V30 61 1 32 34
M  V30 62 1 33 62
M  V30 63 1 33 63
M  V30 64 1 33 64
M  V30 65 2 34 35
M  V30 66 1 34 36
M  V30 67 1 35 39
M  V30 68 2 36 37
M  V30 69 1 36 65
M  V30 70 1 37 38
M  V30 71 1 37 66
M  V30 72 2 38 39
M  V30 73 1 38 67
M  V30 74 1 39 68
M  V30 END BOND
M  V30 END CTAB
M  END
> <s_m_entry_id>
1400

> <s_m_entry_name>
result.5349

> <s_m_Source_Path>
D:\OneDrive - zju.edu.cn\DOC\A-Finished\LCK_VS\Planet\LCK-8617

> <s_m_Source_File>
glide-dock_SP_top1262_2_pv.maegz

> <i_m_Source_File_Index>
1400

> <PLANET_affinity>
7.787

> <i_lp_mmshare_version>
54117

> <i_f3d_flags>
0

> <s_epik_input>
Tz1DKFtPSF0pYzFbY0hdW2NIXVtjSF1bY0hdYzEtYzJbY0hdW2NIXWMoW2NIXVtjSF0yKVtDSDJdbihjKG4zKVtDSDJdW0NIMl1bQ0gzXSljKGMzNClbY0hdYyhbY0hdYzRbQ0gzXSktYyhuNVtDSDNdKW5jKGM1NilbY0hdW2NIXVtjSF1bY0hdNg==

> <s_epik_cmdline>
J2VwaWtfcHl0aG9uJywgJy1waCcsICc3LjAnLCAnLXRuJywgJzgnLCAnLW1hJywgJzUwMCcsICctaW1hZScsICc8aW5maWxlLm1hZT4nLCAnLW9tYWUnLCAnPG91dGZpbGUubWFlPic=

> <r_epik_Ionization_Penalty>
  0.3070

> <r_epik_Ionization_Penalty_Charging>
  0.2664

> <r_epik_Ionization_Penalty_Neutral>
  0.0406

> <r_epik_State_Penalty>
  0.2740

> <r_epik_Charging_Adjusted_Penalty>
0.540443

> <i_epik_Tot_Q>
0

> <i_epik_Tot_abs_Q>
2

> <s_lp_Force_Field>
S-OPLS

> <r_lp_Energy>
58.3964

> <b_lp_Chiralities_Consistent>
1

> <s_lp_Variant>
O=C(C1=CC=CC=C1C2=CC=C(CN3C4=CC(C5=NC6=CC=CC=C6N5C)=CC(C)=C4N=C3CCC)C=C2)O-1

> <s_i_glide_gridfile>
glide-grid_1

> <i_i_glide_lignum>
1529

> <i_i_glide_rotatable_bonds>
7

> <r_i_docking_score>
-7.29292869666999

> <r_i_glide_ligand_efficiency>
-0.186998171709487

> <r_i_glide_ligand_efficiency_sa>
-0.634150338949524

> <r_i_glide_ligand_efficiency_ln>
-1.56381093465817

> <r_i_glide_gscore>
-7.56692869666999

> <r_i_glide_lipo>
-4.42516597745405

> <r_i_glide_hbond>
0

> <r_i_glide_metal>
0

> <r_i_glide_rewards>
-0.981525490209593

> <r_i_glide_evdw>
-50.9527778625488

> <r_i_glide_ecoul>
0.186307564377785

> <r_i_glide_erotb>
0.387300044229916

> <r_i_glide_esite>
-0.0278445147654876

> <r_i_glide_emodel>
-75.1774847705525

> <r_i_glide_energy>
-50.766470298171

> <r_i_glide_einternal>
4.26429414749146

> <i_i_glide_confnum>
123

> <i_i_glide_posenum>
352

> <r_i_glide_eff_state_penalty>
0.274

> <s_m_subgroup_title>
glide-dock_SP_top1262_2_pv

> <s_m_subgroupid>
glide-dock_SP_top1262_2_pv

> <b_m_subgroup_collapsed>
0

$$$$
O=C(C1=CC=C(C(C(F)(F)F)=C1)CN2C[C@@H](N(C)C)CC2)NC3=CC=C(C)C(NC4=NC=CC(C5=CN=...
                    3D
 Schrodinger Suite 2021-3.
  0  0  0     0  0            999 V3000
M  V30 BEGIN CTAB
M  V30 COUNTS 74 78 0 0 0
M  V30 BEGIN ATOM
M  V30 1 C  20.8828 47.6495 87.0624 0
M  V30 2 N  22.2755 47.7683 87.7145 0 CHG=1
M  V30 3 C  22.4257 49.1379 88.4099 0
M  V30 4 C  22.6094 46.5902 88.6630 0 CFG=1
M  V30 5 C  22.2521 45.1710 88.1973 0
M  V30 6 C  23.2709 44.2926 88.9128 0
M  V30 7 C  24.0769 46.4531 89.1218 0
M  V30 8 N  24.4879 45.0861 88.8272 0 CFG=2
M  V30 9 C  25.6254 44.6050 89.6135 0
M  V30 10 C  26.2407 43.3571 88.9794 0
M  V30 11 C  27.1379 43.4180 87.8913 0
M  V30 12 C  27.6332 44.7556 87.3164 0
M  V30 13 F  28.4910 44.5902 86.3079 0
M  V30 14 F  26.6144 45.4814 86.8561 0
M  V30 15 F  28.2631 45.4526 88.2619 0
M  V30 16 C  27.5793 42.2171 87.3121 0
M  V30 17 C  25.8545 42.1127 89.4842 0
M  V30 18 C  26.3029 40.9332 88.8995 0
M  V30 19 C  27.1579 40.9665 87.7912 0
M  V30 20 C  27.5311 39.6755 87.0958 0
M  V30 21 O  26.8882 38.6487 87.3320 0
M  V30 22 N  28.5596 39.7265 86.2138 0
M  V30 23 C  28.8627 38.7572 85.2420 0
M  V30 24 C  30.1948 38.5182 84.9097 0
M  V30 25 C  30.5124 37.5478 83.9582 0
M  V30 26 C  29.5056 36.8041 83.3280 0
M  V30 27 C  29.9073 35.7328 82.3157 0
M  V30 28 C  28.1565 37.0519 83.6429 0
M  V30 29 C  27.8571 38.0531 84.5734 0
M  V30 30 N  27.1436 36.2963 83.0170 0
M  V30 31 C  25.7838 36.0866 83.2938 0
M  V30 32 N  25.1344 35.3110 82.3965 0
M  V30 33 C  23.7991 35.1566 82.5717 0
M  V30 34 C  23.1101 35.7225 83.6419 0
M  V30 35 C  23.8560 36.4880 84.5434 0
M  V30 36 N  25.1951 36.6595 84.3770 0
M  V30 37 C  23.2220 37.2222 85.6717 0
M  V30 38 C  23.7348 38.4355 86.1591 0
M  V30 39 N  23.1442 39.1498 87.1496 0
M  V30 40 C  22.0078 38.6180 87.6619 0
M  V30 41 N  21.4279 37.4472 87.2949 0
M  V30 42 C  22.0523 36.7647 86.2999 0
M  V30 43 H  20.1293 47.5763 87.8490 0
M  V30 44 H  20.8832 46.7565 86.4406 0
M  V30 45 H  20.7169 48.5334 86.4464 0
M  V30 46 H  21.6650 49.2080 89.1910 0
M  V30 47 H  23.4339 49.1959 88.8230 0
M  V30 48 H  22.2786 49.9063 87.6490 0
M  V30 49 H  22.0239 46.7970 89.5636 0
M  V30 50 H  21.2253 44.8962 88.4423 0
M  V30 51 H  22.3754 45.0349 87.1206 0
M  V30 52 H  23.0088 44.0582 89.9460 0
M  V30 53 H  23.4304 43.3338 88.4164 0
M  V30 54 H  24.7447 47.1442 88.6061 0
M  V30 55 H  24.1758 46.6960 90.1814 0
M  V30 56 H  26.3813 45.3854 89.6886 0
M  V30 57 H  25.3129 44.3968 90.6383 0
M  V30 58 H  28.2299 42.2699 86.4516 0
M  V30 59 H  25.1685 42.0536 90.3156 0
M  V30 60 H  25.9480 39.9913 89.2947 0
M  V30 61 H  29.1647 40.5320 86.2357 0
M  V30 62 H  30.9895 39.0652 85.3983 0
M  V30 63 H  31.5510 37.3648 83.7234 0
M  V30 64 H  29.5161 34.7589 82.6162 0
M  V30 65 H  29.4946 35.9559 81.3314 0
M  V30 66 H  30.9904 35.6361 82.2160 0
M  V30 67 H  26.8388 38.3123 84.7944 0
M  V30 68 H  27.4490 35.8049 82.1875 0
M  V30 69 H  23.2830 34.5668 81.8307 0
M  V30 70 H  22.0449 35.5876 83.7391 0
M  V30 71 H  24.6323 38.8695 85.7412 0
M  V30 72 H  21.5228 39.1810 88.4443 0
M  V30 73 H  21.5908 35.8305 86.0162 0
M  V30 74 H  22.9541 47.7229 86.9636 0
M  V30 END ATOM
M  V30 BEGIN BOND
M  V30 1 1 1 2
M  V30 2 1 1 43
M  V30 3 1 1 44
M  V30 4 1 1 45
M  V30 5 1 2 3
M  V30 6 1 2 4
M  V30 7 1 2 74
M  V30 8 1 3 46
M  V30 9 1 3 47
M  V30 10 1 3 48
M  V30 11 1 4 5
M  V30 12 1 4 7
M  V30 13 1 4 49
M  V30 14 1 5 6
M  V30 15 1 5 50
M  V30 16 1 5 51
M  V30 17 1 6 8
M  V30 18 1 6 52
M  V30 19 1 6 53
M  V30 20 1 7 8
M  V30 21 1 7 54
M  V30 22 1 7 55
M  V30 23 1 8 9
M  V30 24 1 9 10
M  V30 25 1 9 56
M  V30 26 1 9 57
M  V30 27 2 10 11
M  V30 28 1 10 17
M  V30 29 1 11 12
M  V30 30 1 11 16
M  V30 31 1 12 13
M  V30 32 1 12 14
M  V30 33 1 12 15
M  V30 34 2 16 19
M  V30 35 1 16 58
M  V30 36 2 17 18
M  V30 37 1 17 59
M  V30 38 1 18 19
M  V30 39 1 18 60
M  V30 40 1 19 20
M  V30 41 2 20 21
M  V30 42 1 20 22
M  V30 43 1 22 23
M  V30 44 1 22 61
M  V30 45 2 23 24
M  V30 46 1 23 29
M  V30 47 1 24 25
M  V30 48 1 24 62
M  V30 49 2 25 26
M  V30 50 1 25 63
M  V30 51 1 26 27
M  V30 52 1 26 28
M  V30 53 1 27 64
M  V30 54 1 27 65
M  V30 55 1 27 66
M  V30 56 2 28 29
M  V30 57 1 28 30
M  V30 58 1 29 67
M  V30 59 1 30 31
M  V30 60 1 30 68
M  V30 61 2 31 32
M  V30 62 1 31 36
M  V30 63 1 32 33
M  V30 64 2 33 34
M  V30 65 1 33 69
M  V30 66 1 34 35
M  V30 67 1 34 70
M  V30 68 2 35 36
M  V30 69 1 35 37
M  V30 70 2 37 38
M  V30 71 1 37 42
M  V30 72 1 38 39
M  V30 73 1 38 71
M  V30 74 2 39 40
M  V30 75 1 40 41
M  V30 76 1 40 72
M  V30 77 2 41 42
M  V30 78 1 42 73
M  V30 END BOND
M  V30 END CTAB
M  END
> <s_m_entry_id>
1402

> <s_m_entry_name>
result.1703

> <s_m_Source_Path>
D:\OneDrive - zju.edu.cn\DOC\A-Finished\LCK_VS\Planet\LCK-8617

> <s_m_Source_File>
glide-dock_SP_top1262_2_pv.maegz

> <i_m_Source_File_Index>
1402

> <PLANET_affinity>
8.594

> <i_lp_mmshare_version>
54117

> <i_f3d_flags>
0

> <s_epik_input>
W0NIM11OKFtDSDNdKVtDQEhdMVtDSDJdW0NIMl1OKFtDSDJdMSlbQ0gyXWMyYyhDKEYpKEYpRilbY0hdYyhbY0hdW2NIXTIpQyg9TylbTkhdYzNbY0hdW2NIXWMoW0NIM10pYyhbY0hdMylbTkhdYzRuW2NIXVtjSF1jKG40KS1jNVtjSF1uW2NIXW5bY0hdNQ==

> <s_epik_cmdline>
J2VwaWtfcHl0aG9uJywgJy1waCcsICc3LjAnLCAnLXRuJywgJzgnLCAnLW1hJywgJzUwMCcsICctaW1hZScsICc8aW5maWxlLm1hZT4nLCAnLW9tYWUnLCAnPG91dGZpbGUubWFlPic=

> <r_epik_Ionization_Penalty>
  0.0081

> <r_epik_Ionization_Penalty_Charging>
  0.0050

> <r_epik_Ionization_Penalty_Neutral>
  0.0031

> <r_epik_State_Penalty>
  0.0733

> <r_epik_Charging_Adjusted_Penalty>
0.0782927

> <i_epik_Tot_Q>
1

> <i_epik_Tot_abs_Q>
1

> <s_lp_Force_Field>
S-OPLS

> <r_lp_Energy>
75.715

> <b_lp_Chiralities_Consistent>
1

> <s_lp_Variant>
O=C(C1=CC=C(C(C(F)(F)F)=C1)CN2C[C@@H](N(C)C)CC2)NC3=CC=C(C)C(NC4=NC=CC(C5=CN=...-1

> <s_i_glide_gridfile>
glide-grid_1

> <i_i_glide_lignum>
748

> <i_i_glide_rotatable_bonds>
10

> <r_i_docking_score>
-7.29218685037447

> <r_i_glide_ligand_efficiency>
-0.173623496437487

> <r_i_glide_ligand_efficiency_sa>
-0.603519899043134

> <r_i_glide_ligand_efficiency_ln>
-1.53919277575474

> <r_i_glide_gscore>
-7.36548685037447

> <r_i_glide_lipo>
-2.44032446157849

> <r_i_glide_hbond>
-0.261225776122623

> <r_i_glide_metal>
0

> <r_i_glide_rewards>
-1.60914709768317

> <r_i_glide_evdw>
-44.4684867858887

> <r_i_glide_ecoul>
-7.93607807159424

> <r_i_glide_erotb>
0.403577291535867

> <r_i_glide_esite>
-0.0445307564924794

> <r_i_glide_emodel>
-81.1852149613399

> <r_i_glide_energy>
-52.4045648574829

> <r_i_glide_einternal>
6.15383577346802

> <i_i_glide_confnum>
107

> <i_i_glide_posenum>
342

> <r_i_glide_eff_state_penalty>
0.0733

> <r_lp_tautomer_probability>
1

> <s_m_subgroup_title>
glide-dock_SP_top1262_2_pv

> <s_m_subgroupid>
glide-dock_SP_top1262_2_pv

> <b_m_subgroup_collapsed>
0

$$$$
C[C@@]([C@@]1([H])C2)(CC[C@@]3([H])[C@@]1([H])CC=C(C4)[C@@]3(CC[C@@H]4OCCC(CO...
                    3D
 Schrodinger Suite 2021-3.
  0  0  0     0  0            999 V3000
M  V30 BEGIN CTAB
M  V30 COUNTS 173 182 0 0 0
M  V30 BEGIN ATOM
M  V30 1 O  33.2574 39.7568 92.1068 0
M  V30 2 C  32.5375 40.6762 92.9380 0
M  V30 3 C  33.3870 41.2522 94.0932 0 CFG=2
M  V30 4 C  32.6411 42.3315 94.8993 0
M  V30 5 C  34.7495 41.7361 93.5702 0
M  V30 6 C  35.4017 40.6801 92.6624 0
M  V30 7 C  34.4419 40.2701 91.5273 0 CFG=2
M  V30 8 O  34.1585 41.3742 90.7149 0
M  V30 9 C  33.7839 40.9584 89.4213 0 CFG=2
M  V30 10 C  34.7228 39.7697 89.1974 0 CFG=2
M  V30 11 C  35.0958 39.2240 90.5867 0 CFG=2
M  V30 12 C  34.6120 37.7756 90.8371 0
M  V30 13 C  35.8660 40.2987 88.2655 0 CFG=2
M  V30 14 C  36.9625 41.0954 89.0453 0
M  V30 15 C  34.9944 41.1841 87.3459 0 CFG=1
M  V30 16 C  34.1179 41.9800 88.3176 0
M  V30 17 C  35.7958 41.8985 86.2268 0 CFG=1
M  V30 18 C  36.4677 40.8411 85.2963 0 CFG=1
M  V30 19 C  37.2822 39.8039 86.1462 0
M  V30 20 C  36.5473 39.2136 87.3944 0
M  V30 21 C  35.5328 40.2358 84.1506 0 CFG=2
M  V30 22 C  36.4077 40.1019 82.8747 0
M  V30 23 C  34.3336 41.1739 83.8235 0
M  V30 24 C  34.1554 42.3868 84.3839 0
M  V30 25 C  35.0414 42.9973 85.4497 0
M  V30 26 C  33.3049 40.6186 82.8287 0
M  V30 27 C  32.7603 39.2900 83.3849 0 CFG=2
M  V30 28 C  33.8974 38.2695 83.5284 0
M  V30 29 C  34.9473 38.8244 84.5113 0
M  V30 30 O  31.6989 38.7960 82.5710 0
M  V30 31 C  30.7375 37.9668 83.2246 0
M  V30 32 C  29.7587 38.8228 84.0567 0
M  V30 33 C  28.5731 38.0443 84.6830 0
M  V30 34 C  27.5333 37.6532 83.6346 0
M  V30 35 O  26.5321 36.8341 84.2331 0
M  V30 36 C  25.2094 37.2405 84.0468 0 CFG=1
M  V30 37 C  24.3948 35.9764 83.8256 0 CFG=2
M  V30 38 O  24.8866 35.2625 82.7057 0
M  V30 39 C  22.8980 36.3340 83.6870 0 CFG=1
M  V30 40 O  22.1443 35.1570 83.6424 0
M  V30 41 C  22.3878 37.3687 84.7227 0 CFG=1
M  V30 42 C  23.4280 38.4947 84.9566 0 CFG=2
M  V30 43 O  24.7190 37.8975 85.1844 0
M  V30 44 C  23.0653 39.3802 86.1691 0
M  V30 45 O  24.0537 40.3606 86.4329 0
M  V30 46 O  21.1010 37.9669 84.4103 0
M  V30 47 C  19.9949 37.0888 84.4317 0 CFG=2
M  V30 48 C  18.6419 37.7912 84.2470 0 CFG=2
M  V30 49 O  18.4784 38.3564 82.9627 0
M  V30 50 C  18.2943 38.7160 85.4359 0 CFG=1
M  V30 51 O  16.9466 39.1565 85.3093 0
M  V30 52 C  18.4904 37.9853 86.7861 0 CFG=2
M  V30 53 O  18.4831 38.8960 87.8793 0
M  V30 54 C  19.8067 37.1640 86.7833 0 CFG=2
M  V30 55 O  19.9494 36.3570 85.6101 0
M  V30 56 C  19.9878 36.1936 87.9444 0
M  V30 57 O  18.8830 35.3588 88.1264 0
M  V30 58 C  27.9069 38.7626 85.8888 0
M  V30 59 O  27.0458 39.8758 85.5982 0
M  V30 60 C  27.6368 41.0765 85.1943 0 CFG=1
M  V30 61 C  26.5931 42.2088 85.3338 0 CFG=2
M  V30 62 O  25.4972 42.0457 84.4473 0
M  V30 63 C  27.2604 43.5960 85.1356 0 CFG=1
M  V30 64 O  26.3575 44.6455 85.4547 0
M  V30 65 C  28.5941 43.7296 85.9106 0 CFG=1
M  V30 66 C  29.4818 42.5037 85.5802 0 CFG=2
M  V30 67 O  28.7362 41.3682 86.0125 0
M  V30 68 C  30.8250 42.4895 86.3271 0
M  V30 69 O  31.5489 41.3110 86.0371 0
M  V30 70 O  29.2526 44.9449 85.5461 0
M  V30 71 C  29.1319 46.0321 86.4288 0 CFG=2
M  V30 72 C  28.9775 47.3147 85.6103 0 CFG=2
M  V30 73 O  27.7863 47.2934 84.8403 0
M  V30 74 C  30.2419 47.5666 84.7667 0 CFG=1
M  V30 75 O  30.1195 48.7643 84.0091 0
M  V30 76 C  31.5036 47.5470 85.6523 0 CFG=2
M  V30 77 O  32.6676 47.5614 84.8424 0
M  V30 78 C  31.5100 46.3039 86.5770 0 CFG=2
M  V30 79 O  30.2567 46.1469 87.2669 0
M  V30 80 C  32.6393 46.3467 87.6284 0
M  V30 81 O  32.7283 45.1199 88.3326 0
M  V30 82 H  31.6823 40.1406 93.3528 0
M  V30 83 H  32.1088 41.4646 92.3179 0
M  V30 84 H  33.5802 40.4132 94.7591 0
M  V30 85 H  32.4255 43.2078 94.2869 0
M  V30 86 H  31.6878 41.9567 95.2842 0
M  V30 87 H  33.2341 42.6658 95.7536 0
M  V30 88 H  35.4078 42.0210 94.3945 0
M  V30 89 H  34.6072 42.6498 92.9896 0
M  V30 90 H  35.6707 39.7895 93.2424 0
M  V30 91 H  36.3210 41.0798 92.2278 0
M  V30 92 H  32.7318 40.6685 89.4014 0
M  V30 93 H  34.1470 39.0125 88.6516 0
M  V30 94 H  36.1752 39.2319 90.7407 0
M  V30 95 H  33.5363 37.6715 90.6709 0
M  V30 96 H  35.1108 37.0786 90.1630 0
M  V30 97 H  34.8222 37.4574 91.8591 0
M  V30 98 H  36.5412 41.8360 89.7204 0
M  V30 99 H  37.5901 40.4360 89.6443 0
M  V30 100 H  37.6542 41.6171 88.3873 0
M  V30 101 H  34.2898 40.5415 86.8076 0
M  V30 102 H  34.6590 42.8417 88.7078 0
M  V30 103 H  33.2169 42.3518 87.8383 0
M  V30 104 H  36.5952 42.4463 86.7210 0
M  V30 105 H  37.2303 41.4441 84.7923 0
M  V30 106 H  37.6929 39.0209 85.5068 0
M  V30 107 H  38.1723 40.3172 86.5143 0
M  V30 108 H  35.7980 38.5053 87.0447 0
M  V30 109 H  37.2250 38.6013 87.9935 0
M  V30 110 H  37.2807 39.4722 83.0532 0
M  V30 111 H  35.8763 39.6566 82.0323 0
M  V30 112 H  36.7751 41.0717 82.5349 0
M  V30 113 H  33.2851 42.9522 84.0743 0
M  V30 114 H  35.7428 43.6827 84.9688 0
M  V30 115 H  34.4447 43.6053 86.1310 0
M  V30 116 H  33.7414 40.4717 81.8400 0
M  V30 117 H  32.4729 41.3152 82.6966 0
M  V30 118 H  32.3677 39.5003 84.3784 0
M  V30 119 H  33.5260 37.3179 83.9114 0
M  V30 120 H  34.3642 38.0749 82.5622 0
M  V30 121 H  34.4464 38.8697 85.4759 0
M  V30 122 H  35.7453 38.0873 84.6205 0
M  V30 123 H  31.2193 37.2030 83.8383 0
M  V30 124 H  30.1965 37.4274 82.4452 0
M  V30 125 H  29.3979 39.6198 83.4059 0
M  V30 126 H  30.2953 39.3206 84.8643 0
M  V30 127 H  28.9902 37.1129 85.0738 0
M  V30 128 H  27.9838 37.0540 82.8450 0
M  V30 129 H  27.1482 38.5584 83.1643 0
M  V30 130 H  25.1360 37.9618 83.2412 0
M  V30 131 H  24.5418 35.3470 84.7046 0
M  V30 132 H  25.8243 35.1035 82.8598 0
M  V30 133 H  22.6899 36.7303 82.7149 0
M  V30 134 H  22.2848 34.6365 84.4374 0
M  V30 135 H  22.3092 36.8439 85.6756 0
M  V30 136 H  23.4661 39.1385 84.0776 0
M  V30 137 H  22.1130 39.8779 85.9938 0
M  V30 138 H  22.9494 38.7806 87.0666 0
M  V30 139 H  24.3740 40.7413 85.5989 0
M  V30 140 H  20.1118 36.3499 83.6452 0
M  V30 141 H  17.9126 36.9809 84.2651 0
M  V30 142 H  18.4160 37.6428 82.3207 0
M  V30 143 H  18.9360 39.6000 85.3733 0
M  V30 144 H  16.6903 39.6170 86.1244 0
M  V30 145 H  17.6494 37.3107 86.9378 0
M  V30 146 H  17.6240 39.3346 87.9365 0
M  V30 147 H  20.6398 37.8674 86.8373 0
M  V30 148 H  20.0829 36.7566 88.8437 0
M  V30 149 H  20.8985 35.6005 87.8253 0
M  V30 150 H  19.1164 34.6203 88.6999 0
M  V30 151 H  27.2824 38.0407 86.4191 0
M  V30 152 H  28.6602 39.0404 86.6315 0
M  V30 153 H  27.9873 40.9763 84.1667 0
M  V30 154 H  26.2074 42.1410 86.3522 0
M  V30 155 H  25.1652 42.9237 84.2189 0
M  V30 156 H  27.4954 43.7212 84.0760 0
M  V30 157 H  26.0343 44.5352 86.3493 0
M  V30 158 H  28.4044 43.7175 86.9855 0
M  V30 159 H  29.6789 42.4516 84.5062 0
M  V30 160 H  31.4338 43.3281 86.0020 0
M  V30 161 H  30.6816 42.5790 87.4009 0
M  V30 162 H  32.4819 41.4804 86.1706 0
M  V30 163 H  28.2941 45.9053 87.1200 0
M  V30 164 H  28.8622 48.1345 86.3236 0
M  V30 165 H  27.4253 46.3893 84.8657 0
M  V30 166 H  30.3281 46.7570 84.0436 0
M  V30 167 H  29.2069 48.7999 83.6970 0
M  V30 168 H  31.5222 48.4533 86.2626 0
M  V30 169 H  32.4964 46.9771 84.0920 0
M  V30 170 H  31.6836 45.4428 85.9385 0
M  V30 171 H  33.6024 46.5234 87.1513 0
M  V30 172 H  32.4819 47.1641 88.3315 0
M  V30 173 H  33.3946 45.2096 89.0201 0
M  V30 END ATOM
M  V30 BEGIN BOND
M  V30 1 1 1 2
M  V30 2 1 1 7
M  V30 3 1 2 3
M  V30 4 1 2 82
M  V30 5 1 2 83
M  V30 6 1 3 4
M  V30 7 1 3 5
M  V30 8 1 3 84
M  V30 9 1 4 85
M  V30 10 1 4 86
M  V30 11 1 4 87
M  V30 12 1 5 6
M  V30 13 1 5 88
M  V30 14 1 5 89
M  V30 15 1 6 7
M  V30 16 1 6 90
M  V30 17 1 6 91
M  V30 18 1 7 8
M  V30 19 1 7 11
M  V30 20 1 8 9
M  V30 21 1 9 10
M  V30 22 1 9 16
M  V30 23 1 9 92
M  V30 24 1 10 11
M  V30 25 1 10 13
M  V30 26 1 10 93
M  V30 27 1 11 12
M  V30 28 1 11 94
M  V30 29 1 12 95
M  V30 30 1 12 96
M  V30 31 1 12 97
M  V30 32 1 13 14
M  V30 33 1 13 15
M  V30 34 1 13 20
M  V30 35 1 14 98
M  V30 36 1 14 99
M  V30 37 1 14 100
M  V30 38 1 15 16
M  V30 39 1 15 17
M  V30 40 1 15 101
M  V30 41 1 16 102
M  V30 42 1 16 103
M  V30 43 1 17 18
M  V30 44 1 17 25
M  V30 45 1 17 104
M  V30 46 1 18 19
M  V30 47 1 18 21
M  V30 48 1 18 105
M  V30 49 1 19 20
M  V30 50 1 19 106
M  V30 51 1 19 107
M  V30 52 1 20 108
M  V30 53 1 20 109
M  V30 54 1 21 22
M  V30 55 1 21 23
M  V30 56 1 21 29
M  V30 57 1 22 110
M  V30 58 1 22 111
M  V30 59 1 22 112
M  V30 60 2 23 24
M  V30 61 1 23 26
M  V30 62 1 24 25
M  V30 63 1 24 113
M  V30 64 1 25 114
M  V30 65 1 25 115
M  V30 66 1 26 27
M  V30 67 1 26 116
M  V30 68 1 26 117
M  V30 69 1 27 28
M  V30 70 1 27 30
M  V30 71 1 27 118
M  V30 72 1 28 29
M  V30 73 1 28 119
M  V30 74 1 28 120
M  V30 75 1 29 121
M  V30 76 1 29 122
M  V30 77 1 30 31
M  V30 78 1 31 32
M  V30 79 1 31 123
M  V30 80 1 31 124
M  V30 81 1 32 33
M  V30 82 1 32 125
M  V30 83 1 32 126
M  V30 84 1 33 34
M  V30 85 1 33 58
M  V30 86 1 33 127
M  V30 87 1 34 35
M  V30 88 1 34 128
M  V30 89 1 34 129
M  V30 90 1 35 36
M  V30 91 1 36 37
M  V30 92 1 36 43
M  V30 93 1 36 130
M  V30 94 1 37 38
M  V30 95 1 37 39
M  V30 96 1 37 131
M  V30 97 1 38 132
M  V30 98 1 39 40
M  V30 99 1 39 41
M  V30 100 1 39 133
M  V30 101 1 40 134
M  V30 102 1 41 42
M  V30 103 1 41 46
M  V30 104 1 41 135
M  V30 105 1 42 43
M  V30 106 1 42 44
M  V30 107 1 42 136
M  V30 108 1 44 45
M  V30 109 1 44 137
M  V30 110 1 44 138
M  V30 111 1 45 139
M  V30 112 1 46 47
M  V30 113 1 47 48
M  V30 114 1 47 55
M  V30 115 1 47 140
M  V30 116 1 48 49
M  V30 117 1 48 50
M  V30 118 1 48 141
M  V30 119 1 49 142
M  V30 120 1 50 51
M  V30 121 1 50 52
M  V30 122 1 50 143
M  V30 123 1 51 144
M  V30 124 1 52 53
M  V30 125 1 52 54
M  V30 126 1 52 145
M  V30 127 1 53 146
M  V30 128 1 54 55
M  V30 129 1 54 56
M  V30 130 1 54 147
M  V30 131 1 56 57
M  V30 132 1 56 148
M  V30 133 1 56 149
M  V30 134 1 57 150
M  V30 135 1 58 59
M  V30 136 1 58 151
M  V30 137 1 58 152
M  V30 138 1 59 60
M  V30 139 1 60 61
M  V30 140 1 60 67
M  V30 141 1 60 153
M  V30 142 1 61 62
M  V30 143 1 61 63
M  V30 144 1 61 154
M  V30 145 1 62 155
M  V30 146 1 63 64
M  V30 147 1 63 65
M  V30 148 1 63 156
M  V30 149 1 64 157
M  V30 150 1 65 66
M  V30 151 1 65 70
M  V30 152 1 65 158
M  V30 153 1 66 67
M  V30 154 1 66 68
M  V30 155 1 66 159
M  V30 156 1 68 69
M  V30 157 1 68 160
M  V30 158 1 68 161
M  V30 159 1 69 162
M  V30 160 1 70 71
M  V30 161 1 71 72
M  V30 162 1 71 79
M  V30 163 1 71 163
M  V30 164 1 72 73
M  V30 165 1 72 74
M  V30 166 1 72 164
M  V30 167 1 73 165
M  V30 168 1 74 75
M  V30 169 1 74 76
M  V30 170 1 74 166
M  V30 171 1 75 167
M  V30 172 1 76 77
M  V30 173 1 76 78
M  V30 174 1 76 168
M  V30 175 1 77 169
M  V30 176 1 78 79
M  V30 177 1 78 80
M  V30 178 1 78 170
M  V30 179 1 80 81
M  V30 180 1 80 171
M  V30 181 1 80 172
M  V30 182 1 81 173
M  V30 END BOND
M  V30 END CTAB
M  END
> <s_m_entry_id>
1408

> <s_m_entry_name>
result.3196

> <s_m_Source_Path>
D:\OneDrive - zju.edu.cn\DOC\A-Finished\LCK_VS\Planet\LCK-8617

> <s_m_Source_File>
glide-dock_SP_top1262_2_pv.maegz

> <i_m_Source_File_Index>
1408

> <PLANET_affinity>
8.588

> <i_lp_mmshare_version>
54117

> <i_f3d_flags>
0

> <s_epik_input>
W0NIMl0xW0NIMl1bQ0BASF0oW0NIM10pW0NIMl1PW0NAQF0xMk9bQ0BASF0zW0NASF0oW0NAQEhdMltDSDNdKVtDQF00KFtDSDNdKVtDQEBIXShbQ0gyXTMpW0NASF01W0NAQEhdKFtDSDJdW0NIMl00KVtDQF02KFtDSDNdKUMoPVtDSF1bQ0gyXTUpW0NIMl1bQ0BIXShbQ0gyXVtDSDJdNilPW0NIMl1bQ0gyXVtDSF0oW0NIMl1PW0NASF03W0NASF0oW09IXSlbQ0BASF0oW09IXSlbQ0BASF0oW0NASF0oTzcpW0NIMl1bT0hdKU9bQ0BASF04W0NASF0oW09IXSlbQ0BASF0oW09IXSlbQ0BIXShbT0hdKVtDQEhdKE84KVtDSDJdW09IXSlbQ0gyXU9bQ0BIXTlbQ0BIXShbT0hdKVtDQEBIXShbT0hdKVtDQEBIXShbQ0BIXShPOSlbQ0gyXVtPSF0pT1tDQEBIXTFbQ0BIXShbT0hdKVtDQEBIXShbT0hdKVtDQEhdKFtPSF0pW0NASF0oTzEpW0NIMl1bT0hd

> <s_epik_cmdline>
J2VwaWtfcHl0aG9uJywgJy1waCcsICc3LjAnLCAnLXRuJywgJzgnLCAnLW1hJywgJzUwMCcsICctaW1hZScsICc8aW5maWxlLm1hZT4nLCAnLW9tYWUnLCAnPG91dGZpbGUubWFlPic=

> <r_epik_Ionization_Penalty>
  0.0000

> <r_epik_Ionization_Penalty_Charging>
  0.0000

> <r_epik_Ionization_Penalty_Neutral>
  0.0000

> <r_epik_State_Penalty>
  0.0000

> <r_epik_Charging_Adjusted_Penalty>
0

> <i_epik_Tot_Q>
0

> <i_epik_Tot_abs_Q>
0

> <s_epik_Chemistry_Notes>
This compound contains an acetal/aminal-like group ( X-CH(R)-Y where X, Y are N, S, or O) that may be acid/base labile, releasing an aldehyde.

> <s_lp_Force_Field>
S-OPLS

> <r_lp_Energy>
90.6245

> <b_lp_Chiralities_Consistent>
1

> <s_lp_Variant>
C[C@@]([C@@]1([H])C2)(CC[C@@]3([H])[C@@]1([H])CC=C(C4)[C@@]3(CC[C@@H]4OCCC(CO...-1

> <s_i_glide_gridfile>
glide-grid_1

> <i_i_glide_lignum>
751

> <i_i_glide_rotatable_bonds>
32

> <r_i_docking_score>
-7.29031870197922

> <r_i_glide_ligand_efficiency>
-0.0900039345923361

> <r_i_glide_ligand_efficiency_sa>
-0.389424407404883

> <r_i_glide_ligand_efficiency_ln>
-1.35144821889083

> <r_i_glide_gscore>
-7.29031870197922

> <r_i_glide_lipo>
-2.56563442550356

> <r_i_glide_hbond>
-0.239813511725035

> <r_i_glide_metal>
0

> <r_i_glide_rewards>
-0.516694542380901

> <r_i_glide_evdw>
-44.9436950683594

> <r_i_glide_ecoul>
-11.9359254837036

> <r_i_glide_erotb>
0.0779902370492403

> <r_i_glide_esite>
-0.00859288344545957

> <r_i_glide_emodel>
-79.8102710549055

> <r_i_glide_energy>
-56.879620552063

> <r_i_glide_einternal>
25.7988586425781

> <i_i_glide_confnum>
267

> <i_i_glide_posenum>
15

> <r_i_glide_eff_state_penalty>
0

> <r_lp_tautomer_probability>
1

> <s_m_subgroup_title>
glide-dock_SP_top1262_2_pv

> <s_m_subgroupid>
glide-dock_SP_top1262_2_pv

> <b_m_subgroup_collapsed>
0

$$$$
FC(C([N+]([O-])=O)=CC=C1)=C1CS(C2=CC(F)=C(SC3=NC(NC4=NNC(C)=C4)=C(OC)C(N5CCCC...
                    3D
 Schrodinger Suite 2021-3.
  0  0  0     0  0            999 V3000
M  V30 BEGIN CTAB
M  V30 COUNTS 70 74 0 0 0
M  V30 BEGIN ATOM
M  V30 1 F  19.9451 39.5403 84.4486 0
M  V30 2 C  19.6279 38.6982 85.4625 0
M  V30 3 C  18.3041 38.2841 85.6453 0
M  V30 4 N  17.2532 38.7588 84.7413 0 CHG=1
M  V30 5 O  16.2118 39.1567 85.2436 0 CHG=-1
M  V30 6 O  17.4757 38.7564 83.5345 0
M  V30 7 C  17.9774 37.4613 86.7302 0
M  V30 8 C  18.9768 36.9916 87.5795 0
M  V30 9 C  20.2989 37.3842 87.3768 0
M  V30 10 C  20.6239 38.2623 86.3410 0
M  V30 11 C  22.0495 38.7605 86.1981 0
M  V30 12 S  22.3170 40.4139 87.0597 0
M  V30 13 O  22.0048 40.2498 88.4856 0
M  V30 14 O  21.6790 41.4674 86.2651 0
M  V30 15 C  24.0887 40.6013 86.9105 0
M  V30 16 C  24.6547 41.4456 85.9491 0
M  V30 17 C  26.0420 41.4880 85.7880 0
M  V30 18 F  26.5754 42.2743 84.8238 0
M  V30 19 C  26.8608 40.6916 86.6005 0
M  V30 20 C  26.2976 39.8754 87.5799 0
M  V30 21 C  24.9153 39.8267 87.7244 0
M  V30 22 S  28.6073 40.6194 86.3389 0
M  V30 23 C  28.7734 39.2581 85.2159 0
M  V30 24 N  29.9568 39.1568 84.5812 0
M  V30 25 C  30.0840 38.1834 83.6434 0
M  V30 26 N  31.2440 38.1529 82.8435 0
M  V30 27 C  32.0843 39.1890 82.4960 0
M  V30 28 N  32.1127 40.3543 83.1079 0
M  V30 29 N  32.9779 41.1027 82.4219 0
M  V30 30 C  33.5419 40.4567 81.3559 0
M  V30 31 C  34.5276 41.1101 80.4179 0
M  V30 32 C  32.9691 39.1976 81.4090 0
M  V30 33 C  29.0376 37.2753 83.3705 0
M  V30 34 O  29.1635 36.3231 82.3821 0
M  V30 35 C  30.1117 35.2878 82.5939 0
M  V30 36 C  27.8222 37.4544 84.0772 0
M  V30 37 N  27.7116 38.4448 85.0047 0
M  V30 38 N  26.6239 36.7610 83.8383 0
M  V30 39 C  26.3859 35.8063 82.7390 0
M  V30 40 C  24.9509 35.9202 82.1868 0
M  V30 41 C  23.8634 35.7897 83.2552 0
M  V30 42 C  24.1959 36.6943 84.4403 0
M  V30 43 C  25.6426 36.4871 84.9142 0
M  V30 44 H  16.9500 37.1673 86.9002 0
M  V30 45 H  18.7237 36.3331 88.3983 0
M  V30 46 H  21.0703 37.0304 88.0435 0
M  V30 47 H  22.2973 38.9168 85.1491 0
M  V30 48 H  22.7543 38.0536 86.6294 0
M  V30 49 H  24.0254 42.0466 85.3065 0
M  V30 50 H  26.9278 39.2475 88.1937 0
M  V30 51 H  24.4825 39.1567 88.4436 0
M  V30 52 H  31.2514 37.3360 82.2525 0
M  V30 53 H  33.1424 42.0695 82.6680 0
M  V30 54 H  34.8957 40.4086 79.6678 0
M  V30 55 H  35.3972 41.4947 80.9512 0
M  V30 56 H  34.0824 41.9473 79.8794 0
M  V30 57 H  33.1410 38.3876 80.7159 0
M  V30 58 H  29.6834 34.3587 82.2221 0
M  V30 59 H  31.0231 35.4757 82.0272 0
M  V30 60 H  30.3761 35.1536 83.6428 0
M  V30 61 H  27.0119 36.0554 81.8876 0
M  V30 62 H  26.6348 34.7899 83.0483 0
M  V30 63 H  24.8830 36.8588 81.6435 0
M  V30 64 H  24.7762 35.1566 81.4394 0
M  V30 65 H  23.8058 34.7567 83.5924 0
M  V30 66 H  22.8826 36.0312 82.8432 0
M  V30 67 H  23.5126 36.4645 85.2563 0
M  V30 68 H  24.0439 37.7435 84.1891 0
M  V30 69 H  25.7491 35.4535 85.2432 0
M  V30 70 H  25.8079 37.1103 85.7931 0
M  V30 END ATOM
M  V30 BEGIN BOND
M  V30 1 1 1 2
M  V30 2 2 2 3
M  V30 3 1 2 10
M  V30 4 1 3 4
M  V30 5 1 3 7
M  V30 6 1 4 5
M  V30 7 2 4 6
M  V30 8 2 7 8
M  V30 9 1 7 44
M  V30 10 1 8 9
M  V30 11 1 8 45
M  V30 12 2 9 10
M  V30 13 1 9 46
M  V30 14 1 10 11
M  V30 15 1 11 12
M  V30 16 1 11 47
M  V30 17 1 11 48
M  V30 18 2 12 13
M  V30 19 2 12 14
M  V30 20 1 12 15
M  V30 21 2 15 16
M  V30 22 1 15 21
M  V30 23 1 16 17
M  V30 24 1 16 49
M  V30 25 1 17 18
M  V30 26 2 17 19
M  V30 27 1 19 20
M  V30 28 1 19 22
M  V30 29 2 20 21
M  V30 30 1 20 50
M  V30 31 1 21 51
M  V30 32 1 22 23
M  V30 33 2 23 24
M  V30 34 1 23 37
M  V30 35 1 24 25
M  V30 36 1 25 26
M  V30 37 2 25 33
M  V30 38 1 26 27
M  V30 39 1 26 52
M  V30 40 2 27 28
M  V30 41 1 27 32
M  V30 42 1 28 29
M  V30 43 1 29 30
M  V30 44 1 29 53
M  V30 45 1 30 31
M  V30 46 2 30 32
M  V30 47 1 31 54
M  V30 48 1 31 55
M  V30 49 1 31 56
M  V30 50 1 32 57
M  V30 51 1 33 34
M  V30 52 1 33 36
M  V30 53 1 34 35
M  V30 54 1 35 58
M  V30 55 1 35 59
M  V30 56 1 35 60
M  V30 57 2 36 37
M  V30 58 1 36 38
M  V30 59 1 38 39
M  V30 60 1 38 43
M  V30 61 1 39 40
M  V30 62 1 39 61
M  V30 63 1 39 62
M  V30 64 1 40 41
M  V30 65 1 40 63
M  V30 66 1 40 64
M  V30 67 1 41 42
M  V30 68 1 41 65
M  V30 69 1 41 66
M  V30 70 1 42 43
M  V30 71 1 42 67
M  V30 72 1 42 68
M  V30 73 1 43 69
M  V30 74 1 43 70
M  V30 END BOND
M  V30 END CTAB
M  END
> <s_m_entry_id>
1410

> <s_m_entry_name>
result.7746

> <s_m_Source_Path>
D:\OneDrive - zju.edu.cn\DOC\A-Finished\LCK_VS\Planet\LCK-8617

> <s_m_Source_File>
glide-dock_SP_top1262_2_pv.maegz

> <i_m_Source_File_Index>
1410

> <PLANET_affinity>
7.412

> <i_lp_mmshare_version>
54117

> <i_f3d_flags>
0

> <s_epik_input>
RmMxYyhbTitdKFtPLV0pPU8pW2NIXVtjSF1bY0hdYzFbQ0gyXVMoPU8pKD1PKWMyW2NIXWMoRiljKFtjSF1bY0hdMilTYzNuYyhbTkhdYzRuW25IXWMoW0NIM10pW2NIXTQpYyhPW0NIM10pYyhuMylONVtDSDJdW0NIMl1bQ0gyXVtDSDJdW0NIMl01

> <s_epik_cmdline>
J2VwaWtfcHl0aG9uJywgJy1waCcsICc3LjAnLCAnLXRuJywgJzgnLCAnLW1hJywgJzUwMCcsICctaW1hZScsICc8aW5maWxlLm1hZT4nLCAnLW9tYWUnLCAnPG91dGZpbGUubWFlPic=

> <r_epik_Ionization_Penalty>
  0.9508

> <r_epik_Ionization_Penalty_Charging>
  0.0000

> <r_epik_Ionization_Penalty_Neutral>
  0.9508

> <r_epik_State_Penalty>
  0.2679

> <r_epik_Charging_Adjusted_Penalty>
0.267884

> <i_epik_Tot_Q>
0

> <i_epik_Tot_abs_Q>
2

> <s_lp_Force_Field>
S-OPLS

> <r_lp_Energy>
54.9355

> <b_lp_Chiralities_Consistent>
1

> <s_lp_Variant>
FC(C([N+]([O-])=O)=CC=C1)=C1CS(C2=CC(F)=C(SC3=NC(NC4=NNC(C)=C4)=C(OC)C(N5CCCC...-1

> <s_i_glide_gridfile>
glide-grid_1

> <i_i_glide_lignum>
2080

> <i_i_glide_rotatable_bonds>
10

> <r_i_docking_score>
-7.28973764325865

> <r_i_glide_ligand_efficiency>
-0.169528782401364

> <r_i_glide_ligand_efficiency_sa>
-0.593926806700035

> <r_i_glide_ligand_efficiency_ln>
-1.53107146646298

> <r_i_glide_gscore>
-7.55763764325865

> <r_i_glide_lipo>
-3.68335973498458

> <r_i_glide_hbond>
0

> <r_i_glide_metal>
0

> <r_i_glide_rewards>
-0.889182067076856

> <r_i_glide_evdw>
-54.7655792236328

> <r_i_glide_ecoul>
-2.80696320533752

> <r_i_glide_erotb>
0.284473917678466

> <r_i_glide_esite>
-0.110246316893411

> <r_i_glide_emodel>
-79.158552567798

> <r_i_glide_energy>
-57.5725424289703

> <r_i_glide_einternal>
5.88573741912842

> <i_i_glide_confnum>
304

> <i_i_glide_posenum>
55

> <r_i_glide_eff_state_penalty>
0.2679

> <r_lp_tautomer_probability>
0.8426

> <s_m_subgroup_title>
glide-dock_SP_top1262_2_pv

> <s_m_subgroupid>
glide-dock_SP_top1262_2_pv

> <b_m_subgroup_collapsed>
0

$$$$
CC(C=C1)=NC=C1C2=NN(C=N2)C3=CC=C(NC4=NC=CC(C5=CC=CC(N6CCOCC6)=C5)=N4)C=C3
                    3D
 Schrodinger Suite 2021-3.
  0  0  0     0  0            999 V3000
M  V30 BEGIN CTAB
M  V30 COUNTS 63 68 0 0 0
M  V30 BEGIN ATOM
M  V30 1 C  19.6762 41.6877 94.2110 0
M  V30 2 C  21.0826 41.6321 93.6433 0
M  V30 3 C  22.0828 40.8473 94.2275 0
M  V30 4 C  23.3362 40.8098 93.6155 0
M  V30 5 C  23.5521 41.5233 92.4286 0
M  V30 6 C  22.4939 42.2782 91.9130 0
M  V30 7 N  21.2783 42.3556 92.5096 0
M  V30 8 C  24.8619 41.4713 91.7290 0
M  V30 9 N  24.9638 41.0897 90.4689 0
M  V30 10 N  26.2808 41.1793 90.2484 0
M  V30 11 C  26.8751 41.6444 91.3923 0
M  V30 12 N  25.9899 41.8056 92.3405 0
M  V30 13 C  26.8826 40.7653 89.0408 0
M  V30 14 C  26.4846 39.5647 88.4433 0
M  V30 15 C  27.1612 39.0912 87.3253 0
M  V30 16 C  28.2199 39.8231 86.7725 0
M  V30 17 C  28.5928 41.0356 87.3560 0
M  V30 18 C  27.9317 41.5076 88.4890 0
M  V30 19 N  28.9796 39.3550 85.6834 0
M  V30 20 C  28.7348 38.3552 84.7324 0
M  V30 21 N  29.8184 37.8622 84.0844 0
M  V30 22 C  29.5892 36.8581 83.1979 0
M  V30 23 C  28.3098 36.3561 82.9364 0
M  V30 24 C  27.2385 36.9246 83.6430 0
M  V30 25 N  27.4613 37.9391 84.5255 0
M  V30 26 C  25.8189 36.4444 83.5461 0
M  V30 27 C  25.3865 35.6101 82.5037 0
M  V30 28 C  24.0668 35.1581 82.4476 0
M  V30 29 C  23.1511 35.5527 83.4240 0
M  V30 30 C  23.5493 36.3677 84.4896 0
M  V30 31 C  24.8755 36.8028 84.5236 0
M  V30 32 N  22.7020 36.7071 85.5387 0
M  V30 33 C  21.4750 35.9550 85.8388 0
M  V30 34 C  21.0196 36.1495 87.3013 0
M  V30 35 O  20.8427 37.5331 87.5823 0
M  V30 36 C  22.0297 38.2869 87.3547 0
M  V30 37 C  22.5056 38.1240 85.8946 0
M  V30 38 H  19.5104 40.9072 94.9580 0
M  V30 39 H  19.4883 42.6582 94.6750 0
M  V30 40 H  18.9357 41.5511 93.4226 0
M  V30 41 H  21.8972 40.2770 95.1266 0
M  V30 42 H  24.1272 40.2116 94.0426 0
M  V30 43 H  22.6179 42.8477 91.0027 0
M  V30 44 H  27.9430 41.7925 91.4502 0
M  V30 45 H  25.6806 38.9775 88.8618 0
M  V30 46 H  26.8713 38.1346 86.9230 0
M  V30 47 H  29.4157 41.6075 86.9464 0
M  V30 48 H  28.2530 42.4352 88.9400 0
M  V30 49 H  29.9434 39.6525 85.6947 0
M  V30 50 H  30.4541 36.4547 82.6876 0
M  V30 51 H  28.1775 35.5485 82.2320 0
M  V30 52 H  26.0727 35.3122 81.7237 0
M  V30 53 H  23.7368 34.5221 81.6443 0
M  V30 54 H  22.1352 35.1920 83.3538 0
M  V30 55 H  25.1828 37.4109 85.3605 0
M  V30 56 H  20.6850 36.2342 85.1397 0
M  V30 57 H  21.6830 34.8938 85.6968 0
M  V30 58 H  21.7367 35.7078 87.9966 0
M  V30 59 H  20.0720 35.6359 87.4662 0
M  V30 60 H  22.8182 37.9796 88.0434 0
M  V30 61 H  21.8217 39.3359 87.5649 0
M  V30 62 H  23.4349 38.6826 85.7826 0
M  V30 63 H  21.7922 38.5755 85.2048 0
M  V30 END ATOM
M  V30 BEGIN BOND
M  V30 1 1 1 2
M  V30 2 1 1 38
M  V30 3 1 1 39
M  V30 4 1 1 40
M  V30 5 2 2 3
M  V30 6 1 2 7
M  V30 7 1 3 4
M  V30 8 1 3 41
M  V30 9 2 4 5
M  V30 10 1 4 42
M  V30 11 1 5 6
M  V30 12 1 5 8
M  V30 13 2 6 7
M  V30 14 1 6 43
M  V30 15 2 8 9
M  V30 16 1 8 12
M  V30 17 1 9 10
M  V30 18 1 10 11
M  V30 19 1 10 13
M  V30 20 2 11 12
M  V30 21 1 11 44
M  V30 22 2 13 14
M  V30 23 1 13 18
M  V30 24 1 14 15
M  V30 25 1 14 45
M  V30 26 2 15 16
M  V30 27 1 15 46
M  V30 28 1 16 17
M  V30 29 1 16 19
M  V30 30 2 17 18
M  V30 31 1 17 47
M  V30 32 1 18 48
M  V30 33 1 19 20
M  V30 34 1 19 49
M  V30 35 2 20 21
M  V30 36 1 20 25
M  V30 37 1 21 22
M  V30 38 2 22 23
M  V30 39 1 22 50
M  V30 40 1 23 24
M  V30 41 1 23 51
M  V30 42 2 24 25
M  V30 43 1 24 26
M  V30 44 2 26 27
M  V30 45 1 26 31
M  V30 46 1 27 28
M  V30 47 1 27 52
M  V30 48 2 28 29
M  V30 49 1 28 53
M  V30 50 1 29 30
M  V30 51 1 29 54
M  V30 52 2 30 31
M  V30 53 1 30 32
M  V30 54 1 31 55
M  V30 55 1 32 33
M  V30 56 1 32 37
M  V30 57 1 33 34
M  V30 58 1 33 56
M  V30 59 1 33 57
M  V30 60 1 34 35
M  V30 61 1 34 58
M  V30 62 1 34 59
M  V30 63 1 35 36
M  V30 64 1 36 37
M  V30 65 1 36 60
M  V30 66 1 36 61
M  V30 67 1 37 62
M  V30 68 1 37 63
M  V30 END BOND
M  V30 END CTAB
M  END
> <s_m_entry_id>
1411

> <s_m_entry_name>
result.2669

> <s_m_Source_Path>
D:\OneDrive - zju.edu.cn\DOC\A-Finished\LCK_VS\Planet\LCK-8617

> <s_m_Source_File>
glide-dock_SP_top1262_2_pv.maegz

> <i_m_Source_File_Index>
1411

> <PLANET_affinity>
8.235

> <i_lp_mmshare_version>
54117

> <i_f3d_flags>
0

> <s_epik_input>
W0NIM11jMVtjSF1bY0hdYyhbY0hdbjEpLWMybm4oW2NIXW4yKS1jM1tjSF1bY0hdYyhbY0hdW2NIXTMpW05IXWM0bltjSF1bY0hdYyhuNCktYzVbY0hdW2NIXVtjSF1jKFtjSF01KU42W0NIMl1bQ0gyXU9bQ0gyXVtDSDJdNg==

> <s_epik_cmdline>
J2VwaWtfcHl0aG9uJywgJy1waCcsICc3LjAnLCAnLXRuJywgJzgnLCAnLW1hJywgJzUwMCcsICctaW1hZScsICc8aW5maWxlLm1hZT4nLCAnLW9tYWUnLCAnPG91dGZpbGUubWFlPic=

> <r_epik_Ionization_Penalty>
  0.0017

> <r_epik_Ionization_Penalty_Charging>
  0.0000

> <r_epik_Ionization_Penalty_Neutral>
  0.0017

> <r_epik_State_Penalty>
  0.0011

> <r_epik_Charging_Adjusted_Penalty>
0.00107652

> <i_epik_Tot_Q>
0

> <i_epik_Tot_abs_Q>
0

> <s_lp_Force_Field>
S-OPLS

> <r_lp_Energy>
63.5945

> <b_lp_Chiralities_Consistent>
1

> <s_lp_Variant>
CC(C=C1)=NC=C1C2=NN(C=N2)C3=CC=C(NC4=NC=CC(C5=CC=CC(N6CCOCC6)=C5)=N4)C=C3-1

> <s_i_glide_gridfile>
glide-grid_1

> <i_i_glide_lignum>
1041

> <i_i_glide_rotatable_bonds>
6

> <r_i_docking_score>
-7.28938822593543

> <r_i_glide_ligand_efficiency>
-0.197010492592849

> <r_i_glide_ligand_efficiency_sa>
-0.656482667631258

> <r_i_glide_ligand_efficiency_ln>
-1.58089741869969

> <r_i_glide_gscore>
-7.29048822593543

> <r_i_glide_lipo>
-3.87732323628694

> <r_i_glide_hbond>
0

> <r_i_glide_metal>
0

> <r_i_glide_rewards>
-0.983872766544648

> <r_i_glide_evdw>
-50.7418556213379

> <r_i_glide_ecoul>
-2.66409182548523

> <r_i_glide_erotb>
0.507414331785835

> <r_i_glide_esite>
0

> <r_i_glide_emodel>
-72.6854443342736

> <r_i_glide_energy>
-53.4059474468231

> <r_i_glide_einternal>
7.5464882850647

> <i_i_glide_confnum>
59

> <i_i_glide_posenum>
353

> <r_i_glide_eff_state_penalty>
0.0011

> <r_lp_tautomer_probability>
1

> <s_m_subgroup_title>
glide-dock_SP_top1262_2_pv

> <s_m_subgroupid>
glide-dock_SP_top1262_2_pv

> <b_m_subgroup_collapsed>
0

$$$$
C[C@H](NCC1=NC2=CC=C(OC3=CC(F)=C(F)C(F)=C3)N=C2N1C4CCC4)C(N)=O
                    3D
 Schrodinger Suite 2021-3.
  0  0  0     0  0            999 V3000
M  V30 BEGIN CTAB
M  V30 COUNTS 50 53 0 0 0
M  V30 BEGIN ATOM
M  V30 1 N  31.7614 41.1565 84.0220 0
M  V30 2 C  30.9171 40.3393 83.3975 0
M  V30 3 O  30.0865 40.7565 82.5868 0
M  V30 4 C  31.0396 38.8324 83.7457 0 CFG=2
M  V30 5 C  32.0765 38.1476 82.8360 0
M  V30 6 N  29.7227 38.1621 83.6426 0 CFG=2
M  V30 7 C  28.7439 38.5134 84.6745 0
M  V30 8 C  27.4272 37.7554 84.4981 0
M  V30 9 N  27.2724 36.8361 83.5679 0
M  V30 10 N  26.2710 37.9689 85.2510 0
M  V30 11 C  26.0461 38.8852 86.3838 0
M  V30 12 C  27.0141 38.9972 87.5785 0
M  V30 13 C  26.5848 40.4680 87.7001 0
M  V30 14 C  26.1943 40.4053 86.2149 0
M  V30 15 C  25.2977 37.1784 84.6558 0
M  V30 16 C  25.9645 36.4807 83.6293 0
M  V30 17 N  23.9930 37.0690 84.9392 0
M  V30 18 C  23.2939 36.2118 84.1310 0
M  V30 19 C  23.8784 35.4588 83.1067 0
M  V30 20 C  25.2428 35.5818 82.8400 0
M  V30 21 O  21.9288 36.0881 84.3083 0
M  V30 22 C  21.2157 36.9067 85.1542 0
M  V30 23 C  21.0710 38.2721 84.8936 0
M  V30 24 C  20.2897 39.0680 85.7300 0
M  V30 25 F  20.1570 40.3856 85.4644 0
M  V30 26 C  19.6415 38.5012 86.8290 0
M  V30 27 F  18.8880 39.2728 87.6433 0
M  V30 28 C  19.7751 37.1356 87.0843 0
M  V30 29 F  19.1273 36.5646 88.1239 0
M  V30 30 C  20.5690 36.3476 86.2545 0
M  V30 31 H  31.6826 42.1521 83.7945 0
M  V30 32 H  32.4470 40.8287 84.6825 0
M  V30 33 H  31.4168 38.7369 84.7666 0
M  V30 34 H  33.0565 38.6223 82.9099 0
M  V30 35 H  32.2066 37.0992 83.1066 0
M  V30 36 H  31.7741 38.1789 81.7873 0
M  V30 37 H  29.8419 37.1579 83.6772 0
M  V30 38 H  29.1975 38.3485 85.6476 0
M  V30 39 H  28.5583 39.5833 84.5979 0
M  V30 40 H  25.0445 38.6361 86.7447 0
M  V30 41 H  26.7905 38.3570 88.4346 0
M  V30 42 H  28.0679 38.8785 87.3368 0
M  V30 43 H  25.7372 40.6248 88.3712 0
M  V30 44 H  27.3792 41.1725 87.9506 0
M  V30 45 H  26.9935 40.7125 85.5408 0
M  V30 46 H  25.2859 40.9335 85.9227 0
M  V30 47 H  23.2688 34.7953 82.5122 0
M  V30 48 H  25.7303 35.0399 82.0455 0
M  V30 49 H  21.5664 38.7152 84.0453 0
M  V30 50 H  20.6717 35.2912 86.4544 0
M  V30 END ATOM
M  V30 BEGIN BOND
M  V30 1 1 1 2
M  V30 2 1 1 31
M  V30 3 1 1 32
M  V30 4 2 2 3
M  V30 5 1 2 4
M  V30 6 1 4 5
M  V30 7 1 4 6
M  V30 8 1 4 33
M  V30 9 1 5 34
M  V30 10 1 5 35
M  V30 11 1 5 36
M  V30 12 1 6 7
M  V30 13 1 6 37
M  V30 14 1 7 8
M  V30 15 1 7 38
M  V30 16 1 7 39
M  V30 17 2 8 9
M  V30 18 1 8 10
M  V30 19 1 9 16
M  V30 20 1 10 11
M  V30 21 1 10 15
M  V30 22 1 11 12
M  V30 23 1 11 14
M  V30 24 1 11 40
M  V30 25 1 12 13
M  V30 26 1 12 41
M  V30 27 1 12 42
M  V30 28 1 13 14
M  V30 29 1 13 43
M  V30 30 1 13 44
M  V30 31 1 14 45
M  V30 32 1 14 46
M  V30 33 2 15 16
M  V30 34 1 15 17
M  V30 35 1 16 20
M  V30 36 2 17 18
M  V30 37 1 18 19
M  V30 38 1 18 21
M  V30 39 2 19 20
M  V30 40 1 19 47
M  V30 41 1 20 48
M  V30 42 1 21 22
M  V30 43 2 22 23
M  V30 44 1 22 30
M  V30 45 1 23 24
M  V30 46 1 23 49
M  V30 47 1 24 25
M  V30 48 2 24 26
M  V30 49 1 26 27
M  V30 50 1 26 28
M  V30 51 1 28 29
M  V30 52 2 28 30
M  V30 53 1 30 50
M  V30 END BOND
M  V30 END CTAB
M  END
> <s_m_entry_id>
1414

> <s_m_entry_name>
result.2092

> <s_m_Source_Path>
D:\OneDrive - zju.edu.cn\DOC\A-Finished\LCK_VS\Planet\LCK-8617

> <s_m_Source_File>
glide-dock_SP_top1262_2_pv.maegz

> <i_m_Source_File_Index>
1414

> <PLANET_affinity>
7.071

> <i_lp_mmshare_version>
54117

> <i_f3d_flags>
0

> <s_epik_input>
W05IMl1DKD1PKVtDQEhdKFtDSDNdKVtOSF1bQ0gyXWMobjFbQ0hdMltDSDJdW0NIMl1bQ0gyXTIpbmMoYzEzKVtjSF1bY0hdYyhuMylPYzRbY0hdYyhGKWMoRiljKEYpW2NIXTQ=

> <s_epik_cmdline>
J2VwaWtfcHl0aG9uJywgJy1waCcsICc3LjAnLCAnLXRuJywgJzgnLCAnLW1hJywgJzUwMCcsICctaW1hZScsICc8aW5maWxlLm1hZT4nLCAnLW9tYWUnLCAnPG91dGZpbGUubWFlPic=

> <r_epik_Ionization_Penalty>
  0.1351

> <r_epik_Ionization_Penalty_Charging>
  0.0015

> <r_epik_Ionization_Penalty_Neutral>
  0.1336

> <r_epik_State_Penalty>
  0.1230

> <r_epik_Charging_Adjusted_Penalty>
0.124502

> <i_epik_Tot_Q>
0

> <i_epik_Tot_abs_Q>
0

> <s_lp_Force_Field>
S-OPLS

> <r_lp_Energy>
55.2482

> <b_lp_Chiralities_Consistent>
1

> <s_lp_Variant>
C[C@H](NCC1=NC2=CC=C(OC3=CC(F)=C(F)C(F)=C3)N=C2N1C4CCC4)C(N)=O-1

> <s_i_glide_gridfile>
glide-grid_1

> <i_i_glide_lignum>
2579

> <i_i_glide_rotatable_bonds>
7

> <r_i_docking_score>
-7.28804564717987

> <r_i_glide_ligand_efficiency>
-0.242934854905996

> <r_i_glide_ligand_efficiency_sa>
-0.75485507713729

> <r_i_glide_ligand_efficiency_ln>
-1.6559233806568

> <r_i_glide_gscore>
-7.41104564717987

> <r_i_glide_lipo>
-2.69538739598159

> <r_i_glide_hbond>
-0.47391723716195

> <r_i_glide_metal>
0

> <r_i_glide_rewards>
-1.75594788007376

> <r_i_glide_evdw>
-37.0454063415527

> <r_i_glide_ecoul>
-7.54776906967163

> <r_i_glide_erotb>
0.674817575186461

> <r_i_glide_esite>
-0.176175031620647

> <r_i_glide_emodel>
-62.6738892438025

> <r_i_glide_energy>
-44.5931754112244

> <r_i_glide_einternal>
6.51593971252441

> <i_i_glide_confnum>
89

> <i_i_glide_posenum>
284

> <r_i_glide_eff_state_penalty>
0.123

> <r_lp_tautomer_probability>
1

> <s_m_subgroup_title>
glide-dock_SP_top1262_2_pv

> <s_m_subgroupid>
glide-dock_SP_top1262_2_pv

> <b_m_subgroup_collapsed>
0

$$$$
O=C(C1=C(N)C2=C(C(F)(F)CC)C=C(N3CCC(S(=O)(C)=O)CC3)N=C2S1)N
                    3D
 Schrodinger Suite 2021-3.
  0  0  0     0  0            999 V3000
M  V30 BEGIN CTAB
M  V30 COUNTS 50 52 0 0 0
M  V30 BEGIN ATOM
M  V30 1 O  30.7712 36.8025 83.1336 0
M  V30 2 C  29.7092 36.3552 82.7137 0
M  V30 3 N  29.6831 35.5567 81.6440 0
M  V30 4 C  28.4234 36.6800 83.3273 0
M  V30 5 C  28.1654 37.5871 84.3660 0
M  V30 6 N  29.1461 38.3743 84.9098 0
M  V30 7 S  26.9650 35.8213 82.8417 0
M  V30 8 C  26.0192 36.6927 84.0094 0
M  V30 9 C  26.7885 37.5936 84.8060 0
M  V30 10 N  24.7117 36.4811 84.1114 0
M  V30 11 C  24.0612 37.1701 85.0774 0
M  V30 12 C  24.7078 38.0471 85.9457 0
M  V30 13 C  26.0849 38.3027 85.8262 0
M  V30 14 C  26.7148 39.3132 86.7925 0
M  V30 15 F  25.9032 39.5433 87.8291 0
M  V30 16 F  27.8014 38.7595 87.3168 0
M  V30 17 C  27.0267 40.6536 86.0922 0
M  V30 18 C  27.7793 41.6612 86.9780 0
M  V30 19 N  22.6897 36.9988 85.1699 0
M  V30 20 C  21.8257 36.6186 84.0461 0
M  V30 21 C  20.5748 37.5181 84.0818 0
M  V30 22 C  19.8216 37.3669 85.4123 0
M  V30 23 S  18.4546 38.6711 85.5453 0
M  V30 24 O  19.0439 39.8788 86.1323 0
M  V30 25 O  17.7560 38.7506 84.2546 0
M  V30 26 C  17.2827 37.9185 86.7948 0
M  V30 27 C  20.7532 37.4498 86.6375 0
M  V30 28 C  22.0438 36.6422 86.4411 0
M  V30 29 H  30.5408 35.3243 81.1565 0
M  V30 30 H  28.8028 35.2181 81.2730 0
M  V30 31 H  29.0052 38.9212 85.7487 0
M  V30 32 H  30.1044 38.2786 84.5886 0
M  V30 33 H  24.1180 38.5706 86.6853 0
M  V30 34 H  27.6067 40.4804 85.1858 0
M  V30 35 H  26.0912 41.1074 85.7602 0
M  V30 36 H  27.9830 42.5844 86.4324 0
M  V30 37 H  27.1970 41.9241 87.8619 0
M  V30 38 H  28.7365 41.2602 87.3134 0
M  V30 39 H  22.3358 36.7556 83.0944 0
M  V30 40 H  21.5734 35.5600 84.1212 0
M  V30 41 H  20.8775 38.5561 83.9285 0
M  V30 42 H  19.9108 37.2818 83.2529 0
M  V30 43 H  19.2805 36.4270 85.4167 0
M  V30 44 H  16.4035 38.5550 86.8431 0
M  V30 45 H  16.9938 36.9237 86.4636 0
M  V30 46 H  17.7685 37.8811 87.7671 0
M  V30 47 H  20.2309 37.0917 87.5257 0
M  V30 48 H  21.0275 38.4814 86.8608 0
M  V30 49 H  21.8535 35.5678 86.4775 0
M  V30 50 H  22.7114 36.8696 87.2670 0
M  V30 END ATOM
M  V30 BEGIN BOND
M  V30 1 2 1 2
M  V30 2 1 2 3
M  V30 3 1 2 4
M  V30 4 1 3 29
M  V30 5 1 3 30
M  V30 6 2 4 5
M  V30 7 1 4 7
M  V30 8 1 5 6
M  V30 9 1 5 9
M  V30 10 1 6 31
M  V30 11 1 6 32
M  V30 12 1 7 8
M  V30 13 2 8 9
M  V30 14 1 8 10
M  V30 15 1 9 13
M  V30 16 2 10 11
M  V30 17 1 11 12
M  V30 18 1 11 19
M  V30 19 2 12 13
M  V30 20 1 12 33
M  V30 21 1 13 14
M  V30 22 1 14 15
M  V30 23 1 14 16
M  V30 24 1 14 17
M  V30 25 1 17 18
M  V30 26 1 17 34
M  V30 27 1 17 35
M  V30 28 1 18 36
M  V30 29 1 18 37
M  V30 30 1 18 38
M  V30 31 1 19 20
M  V30 32 1 19 28
M  V30 33 1 20 21
M  V30 34 1 20 39
M  V30 35 1 20 40
M  V30 36 1 21 22
M  V30 37 1 21 41
M  V30 38 1 21 42
M  V30 39 1 22 23
M  V30 40 1 22 27
M  V30 41 1 22 43
M  V30 42 2 23 24
M  V30 43 2 23 25
M  V30 44 1 23 26
M  V30 45 1 26 44
M  V30 46 1 26 45
M  V30 47 1 26 46
M  V30 48 1 27 28
M  V30 49 1 27 47
M  V30 50 1 27 48
M  V30 51 1 28 49
M  V30 52 1 28 50
M  V30 END BOND
M  V30 END CTAB
M  END
> <s_m_entry_id>
1417

> <s_m_entry_name>
result.7669

> <s_m_Source_Path>
D:\OneDrive - zju.edu.cn\DOC\A-Finished\LCK_VS\Planet\LCK-8617

> <s_m_Source_File>
glide-dock_SP_top1262_2_pv.maegz

> <i_m_Source_File_Index>
1417

> <PLANET_affinity>
7.139

> <i_lp_mmshare_version>
54117

> <i_f3d_flags>
0

> <s_epik_input>
Tz1DKFtOSDJdKWMoczEpYyhbTkgyXSljKGMxMiljKEMoRikoRilbQ0gyXVtDSDNdKVtjSF1jKG4yKU4zW0NIMl1bQ0gyXVtDSF0oUyg9TykoPU8pW0NIM10pW0NIMl1bQ0gyXTM=

> <s_epik_cmdline>
J2VwaWtfcHl0aG9uJywgJy1waCcsICc3LjAnLCAnLXRuJywgJzgnLCAnLW1hJywgJzUwMCcsICctaW1hZScsICc8aW5maWxlLm1hZT4nLCAnLW9tYWUnLCAnPG91dGZpbGUubWFlPic=

> <r_epik_Ionization_Penalty>
  0.0184

> <r_epik_Ionization_Penalty_Charging>
  0.0000

> <r_epik_Ionization_Penalty_Neutral>
  0.0184

> <r_epik_State_Penalty>
  0.0144

> <r_epik_Charging_Adjusted_Penalty>
0.0143962

> <i_epik_Tot_Q>
0

> <i_epik_Tot_abs_Q>
0

> <s_lp_Force_Field>
S-OPLS

> <r_lp_Energy>
33.4938

> <b_lp_Chiralities_Consistent>
1

> <s_lp_Variant>
O=C(C1=C(N)C2=C(C(F)(F)CC)C=C(N3CCC(S(=O)(C)=O)CC3)N=C2S1)N-1

> <s_i_glide_gridfile>
glide-grid_1

> <i_i_glide_lignum>
2480

> <i_i_glide_rotatable_bonds>
5

> <r_i_docking_score>
-7.28720809401289

> <r_i_glide_ligand_efficiency>
-0.260257431929032

> <r_i_glide_ligand_efficiency_sa>
-0.79029484676657

> <r_i_glide_ligand_efficiency_ln>
-1.68210158982503

> <r_i_glide_gscore>
-7.30160809401289

> <r_i_glide_lipo>
-2.42152338484984

> <r_i_glide_hbond>
-0.515514882155151

> <r_i_glide_metal>
0

> <r_i_glide_rewards>
-1.57665481650013

> <r_i_glide_evdw>
-41.5472946166992

> <r_i_glide_ecoul>
-5.81126260757446

> <r_i_glide_erotb>
0.2127509248361

> <r_i_glide_esite>
-0.0516118133727268

> <r_i_glide_emodel>
-66.3568320673271

> <r_i_glide_energy>
-47.3585572242737

> <r_i_glide_einternal>
4.52851676940918

> <i_i_glide_confnum>
8

> <i_i_glide_posenum>
325

> <r_i_glide_eff_state_penalty>
0.0144

> <s_m_subgroup_title>
glide-dock_SP_top1262_2_pv

> <s_m_subgroupid>
glide-dock_SP_top1262_2_pv

> <b_m_subgroup_collapsed>
0

$$$$
O=S(C1=CC=CC=C1NC2=NC(NC3=CC=C(N4CCC(N5CCN(CC5)C)CC4)C=C3OC)=NC=C2Cl)(C(C)C)=O
                    3D
 Schrodinger Suite 2021-3.
  0  0  0     0  0            999 V3000
M  V30 BEGIN CTAB
M  V30 COUNTS 83 87 0 0 0
M  V30 BEGIN ATOM
M  V30 1 C  19.2363 36.8799 87.8239 0
M  V30 2 C  18.4391 37.9607 87.0696 0
M  V30 3 C  16.9700 37.5572 86.8569 0
M  V30 4 S  19.2528 38.3032 85.3801 0
M  V30 5 O  18.3528 39.1565 84.5962 0
M  V30 6 O  19.6992 37.0224 84.8234 0
M  V30 7 C  20.6914 39.3322 85.7788 0
M  V30 8 C  20.4004 40.6019 86.2949 0
M  V30 9 C  21.4190 41.5016 86.5956 0
M  V30 10 C  22.7442 41.1383 86.3850 0
M  V30 11 C  23.0496 39.8799 85.8701 0
M  V30 12 C  22.0382 38.9599 85.5573 0
M  V30 13 N  22.3322 37.7056 84.9963 0
M  V30 14 C  23.4719 37.0574 84.4792 0
M  V30 15 N  24.7304 37.5302 84.7066 0
M  V30 16 C  25.7667 36.9001 84.0829 0
M  V30 17 N  25.6409 35.8192 83.2702 0
M  V30 18 C  24.3837 35.3637 83.0573 0
M  V30 19 C  23.2658 35.9563 83.6383 0
M  V30 20 Cl 21.6978 35.3636 83.2433 0
M  V30 21 N  27.0341 37.4509 84.3216 0
M  V30 22 C  28.3463 37.2012 83.8594 0
M  V30 23 C  28.6582 36.2654 82.8614 0
M  V30 24 C  29.9789 36.0622 82.4578 0
M  V30 25 C  31.0259 36.7860 83.0398 0
M  V30 26 C  30.7081 37.7264 84.0240 0
M  V30 27 C  29.3850 37.9509 84.4397 0
M  V30 28 O  29.0457 38.8840 85.4074 0
M  V30 29 C  30.0580 39.7005 85.9860 0
M  V30 30 N  32.3514 36.6193 82.6459 0
M  V30 31 C  32.7604 36.1154 81.3264 0
M  V30 32 C  33.1534 34.6201 81.3953 0
M  V30 33 C  34.3061 34.4077 82.4115 0
M  V30 34 C  33.9399 35.0593 83.7693 0
M  V30 35 C  33.4808 36.5254 83.5911 0
M  V30 36 N  34.7595 32.9213 82.5734 0 CHG=1
M  V30 37 C  33.8170 32.0170 83.4078 0
M  V30 38 C  34.4344 30.6040 83.5171 0
M  V30 39 N  34.6080 29.9958 82.1924 0 CFG=2
M  V30 40 C  35.1270 28.6383 82.3451 0
M  V30 41 C  35.5753 30.8096 81.4407 0
M  V30 42 C  35.0230 32.2333 81.2048 0
M  V30 43 H  18.7590 36.6191 88.7682 0
M  V30 44 H  19.3081 35.9608 87.2396 0
M  V30 45 H  20.2526 37.2106 88.0406 0
M  V30 46 H  18.4557 38.9004 87.6214 0
M  V30 47 H  16.4723 37.3538 87.8059 0
M  V30 48 H  16.4112 38.3572 86.3671 0
M  V30 49 H  16.8822 36.6690 86.2339 0
M  V30 50 H  19.3744 40.9107 86.4437 0
M  V30 51 H  21.1762 42.4878 86.9700 0
M  V30 52 H  23.5365 41.8395 86.6063 0
M  V30 53 H  24.0884 39.6498 85.7153 0
M  V30 54 H  21.4798 37.1874 84.7990 0
M  V30 55 H  24.2728 34.5141 82.4030 0
M  V30 56 H  27.0069 38.2121 84.9860 0
M  V30 57 H  27.8980 35.6834 82.3678 0
M  V30 58 H  30.1771 35.3334 81.6847 0
M  V30 59 H  31.5111 38.3085 84.4474 0
M  V30 60 H  29.6221 40.3275 86.7615 0
M  V30 61 H  30.8421 39.1007 86.4485 0
M  V30 62 H  30.5073 40.3580 85.2399 0
M  V30 63 H  32.0027 36.3320 80.5724 0
M  V30 64 H  33.6311 36.6934 81.0108 0
M  V30 65 H  32.2831 34.0251 81.6735 0
M  V30 66 H  33.4126 34.2613 80.4006 0
M  V30 67 H  35.1714 34.9555 82.0309 0
M  V30 68 H  34.7656 34.9715 84.4767 0
M  V30 69 H  33.1229 34.5245 84.2537 0
M  V30 70 H  34.3028 37.1209 83.1897 0
M  V30 71 H  33.2404 36.9674 84.5585 0
M  V30 72 H  33.7179 32.4509 84.4038 0
M  V30 73 H  32.8554 32.0147 82.9049 0
M  V30 74 H  35.3894 30.6584 84.0437 0
M  V30 75 H  33.7852 29.9824 84.1354 0
M  V30 76 H  35.2788 28.1707 81.3719 0
M  V30 77 H  36.0800 28.6230 82.8774 0
M  V30 78 H  34.4244 28.0161 82.9004 0
M  V30 79 H  35.7649 30.3450 80.4708 0
M  V30 80 H  36.5369 30.8555 81.9569 0
M  V30 81 H  34.0831 32.1900 80.6542 0
M  V30 82 H  35.7293 32.8621 80.6604 0
M  V30 83 H  35.6379 32.9352 83.0731 0
M  V30 END ATOM
M  V30 BEGIN BOND
M  V30 1 1 1 2
M  V30 2 1 1 43
M  V30 3 1 1 44
M  V30 4 1 1 45
M  V30 5 1 2 3
M  V30 6 1 2 4
M  V30 7 1 2 46
M  V30 8 1 3 47
M  V30 9 1 3 48
M  V30 10 1 3 49
M  V30 11 2 4 5
M  V30 12 2 4 6
M  V30 13 1 4 7
M  V30 14 2 7 8
M  V30 15 1 7 12
M  V30 16 1 8 9
M  V30 17 1 8 50
M  V30 18 2 9 10
M  V30 19 1 9 51
M  V30 20 1 10 11
M  V30 21 1 10 52
M  V30 22 2 11 12
M  V30 23 1 11 53
M  V30 24 1 12 13
M  V30 25 1 13 14
M  V30 26 1 13 54
M  V30 27 2 14 15
M  V30 28 1 14 19
M  V30 29 1 15 16
M  V30 30 2 16 17
M  V30 31 1 16 21
M  V30 32 1 17 18
M  V30 33 2 18 19
M  V30 34 1 18 55
M  V30 35 1 19 20
M  V30 36 1 21 22
M  V30 37 1 21 56
M  V30 38 2 22 23
M  V30 39 1 22 27
M  V30 40 1 23 24
M  V30 41 1 23 57
M  V30 42 2 24 25
M  V30 43 1 24 58
M  V30 44 1 25 26
M  V30 45 1 25 30
M  V30 46 2 26 27
M  V30 47 1 26 59
M  V30 48 1 27 28
M  V30 49 1 28 29
M  V30 50 1 29 60
M  V30 51 1 29 61
M  V30 52 1 29 62
M  V30 53 1 30 31
M  V30 54 1 30 35
M  V30 55 1 31 32
M  V30 56 1 31 63
M  V30 57 1 31 64
M  V30 58 1 32 33
M  V30 59 1 32 65
M  V30 60 1 32 66
M  V30 61 1 33 34
M  V30 62 1 33 36
M  V30 63 1 33 67
M  V30 64 1 34 35
M  V30 65 1 34 68
M  V30 66 1 34 69
M  V30 67 1 35 70
M  V30 68 1 35 71
M  V30 69 1 36 37
M  V30 70 1 36 42
M  V30 71 1 36 83
M  V30 72 1 37 38
M  V30 73 1 37 72
M  V30 74 1 37 73
M  V30 75 1 38 39
M  V30 76 1 38 74
M  V30 77 1 38 75
M  V30 78 1 39 40
M  V30 79 1 39 41
M  V30 80 1 40 76
M  V30 81 1 40 77
M  V30 82 1 40 78
M  V30 83 1 41 42
M  V30 84 1 41 79
M  V30 85 1 41 80
M  V30 86 1 42 81
M  V30 87 1 42 82
M  V30 END BOND
M  V30 END CTAB
M  END
> <s_m_entry_id>
1421

> <s_m_entry_name>
result.864

> <s_m_Source_Path>
D:\OneDrive - zju.edu.cn\DOC\A-Finished\LCK_VS\Planet\LCK-8617

> <s_m_Source_File>
glide-dock_SP_top1262_2_pv.maegz

> <i_m_Source_File_Index>
1421

> <PLANET_affinity>
9.589

> <i_lp_mmshare_version>
54117

> <i_f3d_flags>
0

> <s_epik_input>
W0NIM11bQ0hdKFtDSDNdKVMoPU8pKD1PKWMxW2NIXVtjSF1bY0hdW2NIXWMxW05IXWMybmMobltjSF1jMkNsKVtOSF1jM1tjSF1bY0hdYyhbY0hdYzNPW0NIM10pTjRbQ0gyXVtDSDJdW0NIXShbQ0gyXVtDSDJdNClONVtDSDJdW0NIMl1OKFtDSDNdKVtDSDJdW0NIMl01

> <s_epik_cmdline>
J2VwaWtfcHl0aG9uJywgJy1waCcsICc3LjAnLCAnLXRuJywgJzgnLCAnLW1hJywgJzUwMCcsICctaW1hZScsICc8aW5maWxlLm1hZT4nLCAnLW9tYWUnLCAnPG91dGZpbGUubWFlPic=

> <r_epik_Ionization_Penalty>
  0.0088

> <r_epik_Ionization_Penalty_Charging>
  0.0007

> <r_epik_Ionization_Penalty_Neutral>
  0.0082

> <r_epik_State_Penalty>
  0.0135

> <r_epik_Charging_Adjusted_Penalty>
0.0141672

> <i_epik_Tot_Q>
1

> <i_epik_Tot_abs_Q>
1

> <s_lp_Force_Field>
S-OPLS

> <r_lp_Energy>
83.0779

> <b_lp_Chiralities_Consistent>
1

> <s_lp_Variant>
O=S(C1=CC=CC=C1NC2=NC(NC3=CC=C(N4CCC(N5CCN(CC5)C)CC4)C=C3OC)=NC=C2Cl)(C(C)C)=O-1

> <s_i_glide_gridfile>
glide-grid_1

> <i_i_glide_lignum>
317

> <i_i_glide_rotatable_bonds>
9

> <r_i_docking_score>
-7.28577406289062

> <r_i_glide_ligand_efficiency>
-0.173470811021205

> <r_i_glide_ligand_efficiency_sa>
-0.602989160468513

> <r_i_glide_ligand_efficiency_ln>
-1.53783920152932

> <r_i_glide_gscore>
-7.29927406289062

> <r_i_glide_lipo>
-2.39237929903438

> <r_i_glide_hbond>
0

> <r_i_glide_metal>
0

> <r_i_glide_rewards>
-0.919255926173578

> <r_i_glide_evdw>
-52.6672210693359

> <r_i_glide_ecoul>
-10.6794061660767

> <r_i_glide_erotb>
0.261467452923382

> <r_i_glide_esite>
-0.0138343122277518

> <r_i_glide_emodel>
-88.2923490807985

> <r_i_glide_energy>
-63.3466272354126

> <r_i_glide_einternal>
12.4200630187988

> <i_i_glide_confnum>
26

> <i_i_glide_posenum>
359

> <r_i_glide_eff_state_penalty>
0.0135

> <r_lp_tautomer_probability>
1

> <s_m_subgroup_title>
glide-dock_SP_top1262_2_pv

> <s_m_subgroupid>
glide-dock_SP_top1262_2_pv

> <b_m_subgroup_collapsed>
0

$$$$
CC(C)CC(NC1=CC(C2=CC3=C(NN=C3C(N4)=NC5=C4C(C6=CC=CC(F)=C6)=CN=C5)C=C2)=CN=C1)=O
                    3D
 Schrodinger Suite 2021-3.
  0  0  0     0  0            999 V3000
M  V30 BEGIN CTAB
M  V30 COUNTS 63 68 0 0 0
M  V30 BEGIN ATOM
M  V30 1 C  18.8417 39.1750 85.1878 0
M  V30 2 C  18.7286 37.8309 85.9287 0
M  V30 3 C  17.8531 37.9696 87.1870 0
M  V30 4 C  20.1083 37.2049 86.2748 0
M  V30 5 C  20.9586 36.7558 85.0703 0
M  V30 6 O  20.4048 36.3597 84.0435 0
M  V30 7 N  22.2980 36.8040 85.2430 0
M  V30 8 C  23.2984 36.4263 84.3293 0
M  V30 9 C  24.5631 37.0192 84.4473 0
M  V30 10 C  25.5863 36.7111 83.5353 0
M  V30 11 C  25.2952 35.7644 82.5465 0
M  V30 12 N  24.0922 35.1556 82.4252 0
M  V30 13 C  23.1142 35.4920 83.2980 0
M  V30 14 C  26.9105 37.3862 83.5834 0
M  V30 15 C  26.9880 38.7567 83.8618 0
M  V30 16 C  28.0861 36.6705 83.3240 0
M  V30 17 C  29.3521 37.2551 83.3577 0
M  V30 18 C  29.4014 38.6221 83.6434 0
M  V30 19 C  28.2403 39.3899 83.8863 0
M  V30 20 N  30.4502 39.5119 83.7303 0
M  V30 21 N  30.0262 40.7563 84.0052 0
M  V30 22 C  28.7174 40.7223 84.1137 0
M  V30 23 C  27.9365 41.9134 84.4440 0
M  V30 24 N  26.6505 41.9002 84.7068 0
M  V30 25 N  28.4831 43.1762 84.5468 0
M  V30 26 C  27.4856 44.0344 84.9563 0
M  V30 27 C  26.3409 43.1963 85.0229 0
M  V30 28 C  27.4290 45.4063 85.2596 0
M  V30 29 C  26.1638 45.8827 85.6442 0
M  V30 30 N  25.0789 45.0792 85.6695 0 CHG=1
M  V30 31 C  25.1077 43.7635 85.3789 0
M  V30 32 C  28.6188 46.2960 85.1731 0
M  V30 33 C  29.8414 45.9214 85.7486 0
M  V30 34 C  30.9638 46.7431 85.6442 0
M  V30 35 C  30.8790 47.9567 84.9611 0
M  V30 36 C  29.6725 48.3429 84.3835 0
M  V30 37 F  29.5913 49.5095 83.7019 0
M  V30 38 C  28.5488 47.5227 84.4956 0
M  V30 39 H  19.3395 39.9352 85.7943 0
M  V30 40 H  17.8518 39.5566 84.9319 0
M  V30 41 H  19.3986 39.0778 84.2549 0
M  V30 42 H  18.1925 37.1543 85.2649 0
M  V30 43 H  18.2881 38.6629 87.9087 0
M  V30 44 H  16.8600 38.3463 86.9340 0
M  V30 45 H  17.7158 37.0109 87.6880 0
M  V30 46 H  20.6780 37.9044 86.8915 0
M  V30 47 H  19.9551 36.3252 86.9016 0
M  V30 48 H  22.6299 37.2133 86.1027 0
M  V30 49 H  24.7424 37.7413 85.2303 0
M  V30 50 H  26.0360 35.5036 81.8031 0
M  V30 51 H  22.1840 34.9602 83.1571 0
M  V30 52 H  26.0900 39.3315 84.0330 0
M  V30 53 H  28.0246 35.6133 83.0982 0
M  V30 54 H  30.2436 36.6736 83.1585 0
M  V30 55 H  31.4360 39.3274 83.6125 0
M  V30 56 H  29.4569 43.3799 84.3400 0
M  V30 57 H  25.9764 46.9143 85.9111 0
M  V30 58 H  24.1731 43.2234 85.4310 0
M  V30 59 H  29.9253 44.9822 86.2779 0
M  V30 60 H  31.9017 46.4310 86.0779 0
M  V30 61 H  31.7504 48.5863 84.8650 0
M  V30 62 H  27.6297 47.8351 84.0278 0
M  V30 63 H  24.1858 45.4868 85.9126 0
M  V30 END ATOM
M  V30 BEGIN BOND
M  V30 1 1 1 2
M  V30 2 1 1 39
M  V30 3 1 1 40
M  V30 4 1 1 41
M  V30 5 1 2 3
M  V30 6 1 2 4
M  V30 7 1 2 42
M  V30 8 1 3 43
M  V30 9 1 3 44
M  V30 10 1 3 45
M  V30 11 1 4 5
M  V30 12 1 4 46
M  V30 13 1 4 47
M  V30 14 2 5 6
M  V30 15 1 5 7
M  V30 16 1 7 8
M  V30 17 1 7 48
M  V30 18 2 8 9
M  V30 19 1 8 13
M  V30 20 1 9 10
M  V30 21 1 9 49
M  V30 22 2 10 11
M  V30 23 1 10 14
M  V30 24 1 11 12
M  V30 25 1 11 50
M  V30 26 2 12 13
M  V30 27 1 13 51
M  V30 28 2 14 15
M  V30 29 1 14 16
M  V30 30 1 15 19
M  V30 31 1 15 52
M  V30 32 2 16 17
M  V30 33 1 16 53
M  V30 34 1 17 18
M  V30 35 1 17 54
M  V30 36 2 18 19
M  V30 37 1 18 20
M  V30 38 1 19 22
M  V30 39 1 20 21
M  V30 40 1 20 55
M  V30 41 2 21 22
M  V30 42 1 22 23
M  V30 43 2 23 24
M  V30 44 1 23 25
M  V30 45 1 24 27
M  V30 46 1 25 26
M  V30 47 1 25 56
M  V30 48 2 26 27
M  V30 49 1 26 28
M  V30 50 1 27 31
M  V30 51 2 28 29
M  V30 52 1 28 32
M  V30 53 1 29 30
M  V30 54 1 29 57
M  V30 55 2 30 31
M  V30 56 1 30 63
M  V30 57 1 31 58
M  V30 58 2 32 33
M  V30 59 1 32 38
M  V30 60 1 33 34
M  V30 61 1 33 59
M  V30 62 2 34 35
M  V30 63 1 34 60
M  V30 64 1 35 36
M  V30 65 1 35 61
M  V30 66 1 36 37
M  V30 67 2 36 38
M  V30 68 1 38 62
M  V30 END BOND
M  V30 END CTAB
M  END
> <s_m_entry_id>
1423

> <s_m_entry_name>
result.2238

> <s_m_Source_Path>
D:\OneDrive - zju.edu.cn\DOC\A-Finished\LCK_VS\Planet\LCK-8617

> <s_m_Source_File>
glide-dock_SP_top1262_2_pv.maegz

> <i_m_Source_File_Index>
1423

> <PLANET_affinity>
8.213

> <i_lp_mmshare_version>
54117

> <i_f3d_flags>
0

> <s_epik_input>
W0NIM11bQ0hdKFtDSDNdKVtDSDJdQyg9TylbTkhdYzFbY0hdYyhbY0hdbltjSF0xKS1jKFtjSF1bY0hdMilbY0hdYyhjMjMpYyhuW25IXTMpLWMoW25IXTQpbmMoYzQ1KVtjSF1uW2NIXWM1LWM2W2NIXVtjSF1bY0hdYyhGKVtjSF02

> <s_epik_cmdline>
J2VwaWtfcHl0aG9uJywgJy1waCcsICc3LjAnLCAnLXRuJywgJzgnLCAnLW1hJywgJzUwMCcsICctaW1hZScsICc8aW5maWxlLm1hZT4nLCAnLW9tYWUnLCAnPG91dGZpbGUubWFlPic=

> <r_epik_Ionization_Penalty>
  1.7487

> <r_epik_Ionization_Penalty_Charging>
  0.0000

> <r_epik_Ionization_Penalty_Neutral>
  1.7487

> <r_epik_State_Penalty>
  0.3821

> <r_epik_Charging_Adjusted_Penalty>
0.382079

> <i_epik_Tot_Q>
1

> <i_epik_Tot_abs_Q>
1

> <s_lp_Force_Field>
S-OPLS

> <r_lp_Energy>
49.8079

> <b_lp_Chiralities_Consistent>
1

> <s_lp_Variant>
CC(C)CC(NC1=CC(C2=CC3=C(NN=C3C(N4)=NC5=C4C(C6=CC=CC(F)=C6)=CN=C5)C=C2)=CN=C1)=O-1

> <s_i_glide_gridfile>
glide-grid_1

> <i_i_glide_lignum>
1064

> <i_i_glide_rotatable_bonds>
7

> <r_i_docking_score>
-7.2845913743968

> <r_i_glide_ligand_efficiency>
-0.191699773010442

> <r_i_glide_ligand_efficiency_sa>
-0.644489921568587

> <r_i_glide_ligand_efficiency_ln>
-1.57077219128724

> <r_i_glide_gscore>
-7.6666913743968

> <r_i_glide_lipo>
-2.76888782625616

> <r_i_glide_hbond>
-0.488514544028

> <r_i_glide_metal>
0

> <r_i_glide_rewards>
-1.06084943479717

> <r_i_glide_evdw>
-47.1623191833496

> <r_i_glide_ecoul>
-9.15527153015137

> <r_i_glide_erotb>
0.47843494874858

> <r_i_glide_esite>
-0.0954678293738671

> <r_i_glide_emodel>
-83.6077658115215

> <r_i_glide_energy>
-56.317590713501

> <r_i_glide_einternal>
5.464919090271

> <i_i_glide_confnum>
123

> <i_i_glide_posenum>
66

> <r_i_glide_eff_state_penalty>
0.3821

> <r_lp_tautomer_probability>
0.872339

> <s_m_subgroup_title>
glide-dock_SP_top1262_2_pv

> <s_m_subgroupid>
glide-dock_SP_top1262_2_pv

> <b_m_subgroup_collapsed>
0

$$$$
O=C1OC2(C3=C(OC4=C2C=C(CN(CC(O)=O)CC(O)=O)C(O)=C4)C=C(O)C(CN(CC(O)=O)CC(O)=O)...
                    3D
 Schrodinger Suite 2021-3.
  0  0  0     0  0            999 V3000
M  V30 BEGIN CTAB
M  V30 COUNTS 69 73 0 0 0
M  V30 BEGIN ATOM
M  V30 1 O  18.4731 38.4526 83.2434 0 CHG=-1
M  V30 2 C  19.2810 37.9154 84.0252 0
M  V30 3 O  19.1280 36.7569 84.4437 0
M  V30 4 C  20.5538 38.7136 84.3867 0
M  V30 5 N  21.2488 38.2257 85.6863 0 CHG=1
M  V30 6 C  20.5327 38.6968 86.9762 0
M  V30 7 C  21.4214 39.7742 87.6444 0
M  V30 8 O  22.6049 39.9522 87.2637 0 CHG=-1
M  V30 9 O  20.8894 40.4017 88.5810 0
M  V30 10 C  21.8997 36.8184 85.7387 0
M  V30 11 C  23.1462 36.7051 84.8741 0
M  V30 12 C  24.2760 37.4009 85.2979 0
M  V30 13 C  23.2167 35.9093 83.7206 0
M  V30 14 O  22.1154 35.2265 83.2698 0
M  V30 15 C  24.4262 35.8005 83.0327 0
M  V30 16 C  25.5421 36.5194 83.4641 0
M  V30 17 C  25.4846 37.3360 84.6047 0
M  V30 18 C  26.7337 38.0758 85.0935 0
M  V30 19 C  26.5638 39.5789 85.1118 0
M  V30 20 C  26.5629 39.9964 86.4321 0
M  V30 21 C  26.7938 38.8252 87.2836 0
M  V30 22 O  26.9011 38.7568 88.5029 0
M  V30 23 O  26.8829 37.7427 86.4719 0
M  V30 24 C  26.3769 41.3350 86.7774 0
M  V30 25 C  26.1890 42.2729 85.7630 0
M  V30 26 C  26.2157 41.8671 84.4285 0
M  V30 27 C  26.4260 40.5242 84.0954 0
M  V30 28 O  26.6931 36.3769 82.7206 0
M  V30 29 C  27.9064 36.7563 83.2535 0
M  V30 30 C  27.9998 37.5973 84.3745 0
M  V30 31 C  29.2745 37.9554 84.8124 0
M  V30 32 C  30.4299 37.5451 84.1433 0
M  V30 33 C  30.3139 36.6538 83.0676 0
M  V30 34 O  31.4162 36.1858 82.4034 0
M  V30 35 C  29.0508 36.2536 82.6338 0
M  V30 36 C  31.7623 38.1471 84.5922 0
M  V30 37 N  32.3586 39.2263 83.6416 0 CHG=1
M  V30 38 C  31.3771 40.0535 82.7574 0
M  V30 39 C  30.2418 40.7564 83.5436 0
M  V30 40 O  30.3115 40.8904 84.7881 0 CHG=-1
M  V30 41 O  29.2828 41.1548 82.8438 0
M  V30 42 C  33.5152 40.0557 84.2665 0
M  V30 43 C  34.8511 39.6460 83.5984 0
M  V30 44 O  34.8731 38.7225 82.7463 0 CHG=-1
M  V30 45 O  35.8619 40.2762 83.9766 0
M  V30 46 H  20.3641 39.7797 84.5287 0
M  V30 47 H  21.3302 38.5771 83.6436 0
M  V30 48 H  19.5568 39.0947 86.6917 0
M  V30 49 H  20.3988 37.8236 87.6154 0
M  V30 50 H  21.1563 36.0488 85.5520 0
M  V30 51 H  22.1986 36.7138 86.7835 0
M  V30 52 H  24.2203 38.0056 86.1932 0
M  V30 53 H  22.2514 34.5754 82.5698 0
M  V30 54 H  24.4955 35.1878 82.1482 0
M  V30 55 H  26.3700 41.6529 87.8102 0
M  V30 56 H  26.0333 43.3142 86.0046 0
M  V30 57 H  26.0809 42.5998 83.6458 0
M  V30 58 H  26.4830 40.2300 83.0579 0
M  V30 59 H  29.3565 38.6220 85.6602 0
M  V30 60 H  28.9605 35.5878 81.7872 0
M  V30 61 H  31.6452 38.6687 85.5452 0
M  V30 62 H  32.5492 37.4027 84.7197 0
M  V30 63 H  31.9924 40.7736 82.2155 0
M  V30 64 H  30.9992 39.3229 82.0454 0
M  V30 65 H  33.2875 41.1112 84.1049 0
M  V30 66 H  33.5337 39.8487 85.3373 0
M  V30 67 H  32.2459 36.3110 82.8654 0
M  V30 68 H  22.0675 38.8266 85.7246 0
M  V30 69 H  32.8668 38.6885 82.9465 0
M  V30 END ATOM
M  V30 BEGIN BOND
M  V30 1 1 1 2
M  V30 2 2 2 3
M  V30 3 1 2 4
M  V30 4 1 4 5
M  V30 5 1 4 46
M  V30 6 1 4 47
M  V30 7 1 5 6
M  V30 8 1 5 10
M  V30 9 1 5 68
M  V30 10 1 6 7
M  V30 11 1 6 48
M  V30 12 1 6 49
M  V30 13 1 7 8
M  V30 14 2 7 9
M  V30 15 1 10 11
M  V30 16 1 10 50
M  V30 17 1 10 51
M  V30 18 2 11 12
M  V30 19 1 11 13
M  V30 20 1 12 17
M  V30 21 1 12 52
M  V30 22 1 13 14
M  V30 23 2 13 15
M  V30 24 1 14 53
M  V30 25 1 15 16
M  V30 26 1 15 54
M  V30 27 2 16 17
M  V30 28 1 16 28
M  V30 29 1 17 18
M  V30 30 1 18 19
M  V30 31 1 18 23
M  V30 32 1 18 30
M  V30 33 2 19 20
M  V30 34 1 19 27
M  V30 35 1 20 21
M  V30 36 1 20 24
M  V30 37 2 21 22
M  V30 38 1 21 23
M  V30 39 2 24 25
M  V30 40 1 24 55
M  V30 41 1 25 26
M  V30 42 1 25 56
M  V30 43 2 26 27
M  V30 44 1 26 57
M  V30 45 1 27 58
M  V30 46 1 28 29
M  V30 47 2 29 30
M  V30 48 1 29 35
M  V30 49 1 30 31
M  V30 50 2 31 32
M  V30 51 1 31 59
M  V30 52 1 32 33
M  V30 53 1 32 36
M  V30 54 1 33 34
M  V30 55 2 33 35
M  V30 56 1 34 67
M  V30 57 1 35 60
M  V30 58 1 36 37
M  V30 59 1 36 61
M  V30 60 1 36 62
M  V30 61 1 37 38
M  V30 62 1 37 42
M  V30 63 1 37 69
M  V30 64 1 38 39
M  V30 65 1 38 63
M  V30 66 1 38 64
M  V30 67 1 39 40
M  V30 68 2 39 41
M  V30 69 1 42 43
M  V30 70 1 42 65
M  V30 71 1 42 66
M  V30 72 1 43 44
M  V30 73 2 43 45
M  V30 END BOND
M  V30 END CTAB
M  END
> <s_m_entry_id>
1424

> <s_m_entry_name>
result.4987

> <s_m_Source_Path>
D:\OneDrive - zju.edu.cn\DOC\A-Finished\LCK_VS\Planet\LCK-8617

> <s_m_Source_File>
glide-dock_SP_top1262_2_pv.maegz

> <i_m_Source_File_Index>
1424

> <PLANET_affinity>
8.027

> <i_lp_mmshare_version>
54117

> <i_f3d_flags>
0

> <s_epik_input>
W09IXUMoPU8pW0NIMl1OKFtDSDJdQyg9TylbT0hdKVtDSDJdYyhbY0hdMSljKFtPSF0pW2NIXWMoYzFDMjNjNGMoQyg9TylPMilbY0hdW2NIXVtjSF1bY0hdNClPYzVjM1tjSF1jKGMoW09IXSlbY0hdNSlbQ0gyXU4oW0NIMl1DKD1PKVtPSF0pW0NIMl1DKD1PKVtPSF0=

> <s_epik_cmdline>
J2VwaWtfcHl0aG9uJywgJy1waCcsICc3LjAnLCAnLXRuJywgJzgnLCAnLW1hJywgJzUwMCcsICctaW1hZScsICc8aW5maWxlLm1hZT4nLCAnLW9tYWUnLCAnPG91dGZpbGUubWFlPic=

> <r_epik_Ionization_Penalty>
  2.9522

> <r_epik_Ionization_Penalty_Charging>
  0.0557

> <r_epik_Ionization_Penalty_Neutral>
  2.8965

> <r_epik_State_Penalty>
  1.2725

> <r_epik_Charging_Adjusted_Penalty>
1.32821

> <i_epik_Tot_Q>
-2

> <i_epik_Tot_abs_Q>
6

> <s_epik_Chemistry_Notes>
This compound has an ester and may undergo hydrolysis at high or low pH.

> <s_lp_Force_Field>
S-OPLS

> <r_lp_Energy>
49.8793

> <b_lp_Chiralities_Consistent>
1

> <s_lp_Variant>
O=C1OC2(C3=C(OC4=C2C=C(CN(CC(O)=O)CC(O)=O)C(O)=C4)C=C(O)C(CN(CC(O)=O)CC(O)=O)...-2

> <s_i_glide_gridfile>
glide-grid_1

> <i_i_glide_lignum>
1277

> <i_i_glide_rotatable_bonds>
14

> <r_i_docking_score>
-7.28440252897446

> <r_i_glide_ligand_efficiency>
-0.161875611754988

> <r_i_glide_ligand_efficiency_sa>
-0.575774278880957

> <r_i_glide_ligand_efficiency_ln>
-1.51548034514122

> <r_i_glide_gscore>
-8.55690252897446

> <r_i_glide_lipo>
-3.40231926146985

> <r_i_glide_hbond>
-0.876137544439135

> <r_i_glide_metal>
0

> <r_i_glide_rewards>
-0.732571640831218

> <r_i_glide_evdw>
-41.1622276306152

> <r_i_glide_ecoul>
-11.4403610229492

> <r_i_glide_erotb>
0.306304306694244

> <r_i_glide_esite>
-0.0780128539553541

> <r_i_glide_emodel>
-74.5648216435126

> <r_i_glide_energy>
-52.6025886535645

> <r_i_glide_einternal>
13.2106456756592

> <i_i_glide_confnum>
212

> <i_i_glide_posenum>
355

> <r_i_glide_eff_state_penalty>
1.2725

> <r_lp_tautomer_probability>
1

> <s_m_subgroup_title>
glide-dock_SP_top1262_2_pv

> <s_m_subgroupid>
glide-dock_SP_top1262_2_pv

> <b_m_subgroup_collapsed>
0

$$$$
O=C1C2=C(O)C=C(O)C=C2OC(C3=CC(O[C@@H]4O[C@@H]([C@@H](O)[C@H](O)[C@H]4O)C(O)=O...
                    3D
 Schrodinger Suite 2021-3.
  0  0  0     0  0            999 V3000
M  V30 BEGIN CTAB
M  V30 COUNTS 50 53 0 0 0
M  V30 BEGIN ATOM
M  V30 1 O  28.2959 35.8632 82.4435 0
M  V30 2 C  27.8288 36.7567 83.3659 0
M  V30 3 C  28.7458 37.6723 83.8795 0
M  V30 4 C  28.3556 38.5926 84.8433 0
M  V30 5 O  29.2573 39.4829 85.3472 0
M  V30 6 C  27.0499 38.6012 85.3059 0
M  V30 7 C  26.1354 37.6886 84.7958 0
M  V30 8 C  26.4942 36.7558 83.8110 0
M  V30 9 O  24.8685 37.7491 85.3353 0
M  V30 10 C  23.9192 36.8902 84.8857 0
M  V30 11 C  24.1578 35.9563 83.9395 0
M  V30 12 C  25.4554 35.8030 83.3034 0
M  V30 13 O  25.6836 34.9531 82.4437 0
M  V30 14 C  22.6572 37.0378 85.6564 0
M  V30 15 C  22.2989 38.2657 86.2294 0
M  V30 16 C  21.1194 38.4154 86.9806 0
M  V30 17 C  20.2532 37.3197 87.0915 0
M  V30 18 O  19.0499 37.4279 87.7395 0
M  V30 19 C  20.6003 36.0911 86.5378 0
M  V30 20 C  21.7896 35.9571 85.8295 0
M  V30 21 O  20.7487 39.5979 87.5990 0
M  V30 22 C  21.7095 40.5730 87.9011 0 CFG=2
M  V30 23 O  21.5452 40.9614 89.2419 0
M  V30 24 C  22.5171 41.9337 89.6770 0 CFG=2
M  V30 25 C  22.4159 42.1630 91.2107 0
M  V30 26 O  21.2824 42.3563 91.7095 0 CHG=-1
M  V30 27 O  23.4743 42.1261 91.8839 0
M  V30 28 C  22.2795 43.2595 88.8962 0 CFG=1
M  V30 29 O  23.2038 44.2876 89.2214 0
M  V30 30 C  22.3479 42.9661 87.3836 0 CFG=2
M  V30 31 O  22.0830 44.1112 86.5864 0
M  V30 32 C  21.4550 41.7745 86.9741 0 CFG=1
M  V30 33 O  21.6831 41.4574 85.6100 0
M  V30 34 H  27.6028 35.2868 82.1019 0
M  V30 35 H  29.7678 37.6538 83.5280 0
M  V30 36 H  30.1284 39.3747 84.9625 0
M  V30 37 H  26.7482 39.3068 86.0634 0
M  V30 38 H  23.3703 35.2828 83.6401 0
M  V30 39 H  22.9513 39.1106 86.0705 0
M  V30 40 H  18.5300 36.6216 87.7181 0
M  V30 41 H  19.9535 35.2355 86.6526 0
M  V30 42 H  22.0325 34.9923 85.4177 0
M  V30 43 H  22.7339 40.1960 87.8714 0
M  V30 44 H  23.5285 41.5616 89.4860 0
M  V30 45 H  21.2837 43.6430 89.1307 0
M  V30 46 H  22.9904 45.0471 88.6729 0
M  V30 47 H  23.3834 42.7030 87.1540 0
M  V30 48 H  21.1357 44.3565 86.6338 0
M  V30 49 H  20.4040 42.0502 87.0762 0
M  V30 50 H  21.8583 42.2902 85.1586 0
M  V30 END ATOM
M  V30 BEGIN BOND
M  V30 1 1 1 2
M  V30 2 1 1 34
M  V30 3 2 2 3
M  V30 4 1 2 8
M  V30 5 1 3 4
M  V30 6 1 3 35
M  V30 7 1 4 5
M  V30 8 2 4 6
M  V30 9 1 5 36
M  V30 10 1 6 7
M  V30 11 1 6 37
M  V30 12 2 7 8
M  V30 13 1 7 9
M  V30 14 1 8 12
M  V30 15 1 9 10
M  V30 16 2 10 11
M  V30 17 1 10 14
M  V30 18 1 11 12
M  V30 19 1 11 38
M  V30 20 2 12 13
M  V30 21 2 14 15
M  V30 22 1 14 20
M  V30 23 1 15 16
M  V30 24 1 15 39
M  V30 25 2 16 17
M  V30 26 1 16 21
M  V30 27 1 17 18
M  V30 28 1 17 19
M  V30 29 1 18 40
M  V30 30 2 19 20
M  V30 31 1 19 41
M  V30 32 1 20 42
M  V30 33 1 21 22
M  V30 34 1 22 23
M  V30 35 1 22 32
M  V30 36 1 22 43
M  V30 37 1 23 24
M  V30 38 1 24 25
M  V30 39 1 24 28
M  V30 40 1 24 44
M  V30 41 1 25 26
M  V30 42 2 25 27
M  V30 43 1 28 29
M  V30 44 1 28 30
M  V30 45 1 28 45
M  V30 46 1 29 46
M  V30 47 1 30 31
M  V30 48 1 30 32
M  V30 49 1 30 47
M  V30 50 1 31 48
M  V30 51 1 32 33
M  V30 52 1 32 49
M  V30 53 1 33 50
M  V30 END BOND
M  V30 END CTAB
M  END
> <s_m_entry_id>
1426

> <s_m_entry_name>
result.5230

> <s_m_Source_Path>
D:\OneDrive - zju.edu.cn\DOC\A-Finished\LCK_VS\Planet\LCK-8617

> <s_m_Source_File>
glide-dock_SP_top1262_2_pv.maegz

> <i_m_Source_File_Index>
1426

> <PLANET_affinity>
7.113

> <i_lp_mmshare_version>
54117

> <i_f3d_flags>
0

> <s_epik_input>
W09IXWMoW2NIXTEpW2NIXWMoW09IXSljKGMxMiljKD1PKVtjSF1jKG8yKS1jM1tjSF1jKGMoW09IXSlbY0hdW2NIXTMpT1tDQEBIXTRPW0NASF0oQyg9TylbT0hdKVtDQEBIXShbT0hdKVtDQEhdKFtPSF0pW0NASF00W09IXQ==

> <s_epik_cmdline>
J2VwaWtfcHl0aG9uJywgJy1waCcsICc3LjAnLCAnLXRuJywgJzgnLCAnLW1hJywgJzUwMCcsICctaW1hZScsICc8aW5maWxlLm1hZT4nLCAnLW9tYWUnLCAnPG91dGZpbGUubWFlPic=

> <r_epik_Ionization_Penalty>
  0.0494

> <r_epik_Ionization_Penalty_Charging>
  0.0001

> <r_epik_Ionization_Penalty_Neutral>
  0.0493

> <r_epik_State_Penalty>
  0.0397

> <r_epik_Charging_Adjusted_Penalty>
0.0397994

> <i_epik_Tot_Q>
-1

> <i_epik_Tot_abs_Q>
1

> <s_epik_Chemistry_Notes>
This compound contains an acetal/aminal-like group ( X-CH(R)-Y where X, Y are N, S, or O) that may be acid/base labile, releasing an aldehyde.

> <s_lp_Force_Field>
S-OPLS

> <r_lp_Energy>
26.435

> <b_lp_Chiralities_Consistent>
1

> <s_lp_Variant>
O=C1C2=C(O)C=C(O)C=C2OC(C3=CC(O[C@@H]4O[C@@H]([C@@H](O)[C@H](O)[C@H]4O)C(O)=O...-1

> <s_i_glide_gridfile>
glide-grid_1

> <i_i_glide_lignum>
2504

> <i_i_glide_rotatable_bonds>
10

> <r_i_docking_score>
-7.2835494743703

> <r_i_glide_ligand_efficiency>
-0.220713620435464

> <r_i_glide_ligand_efficiency_sa>
-0.707946513819305

> <r_i_glide_ligand_efficiency_ln>
-1.61982369089909

> <r_i_glide_gscore>
-7.3232494743703

> <r_i_glide_lipo>
-2.94229063977788

> <r_i_glide_hbond>
-0.41631096120864

> <r_i_glide_metal>
0

> <r_i_glide_rewards>
-0.838505818181818

> <r_i_glide_evdw>
-37.4760627746582

> <r_i_glide_ecoul>
-10.004376411438

> <r_i_glide_erotb>
0.283804210233334

> <r_i_glide_esite>
-0.0354866649866858

> <r_i_glide_emodel>
-69.2871476175071

> <r_i_glide_energy>
-47.4804391860962

> <r_i_glide_einternal>
5.8692946434021

> <i_i_glide_confnum>
3

> <i_i_glide_posenum>
309

> <r_i_glide_eff_state_penalty>
0.0397

> <r_lp_tautomer_probability>
1

> <s_m_subgroup_title>
glide-dock_SP_top1262_2_pv

> <s_m_subgroupid>
glide-dock_SP_top1262_2_pv

> <b_m_subgroup_collapsed>
0

$$$$
O=C(N(CC)CC)C1=CC=C(C2=NC3=CC=CC=C3C(NCCCN4CCCCC4)=C2)C=C1.Cl.Cl
                    3D
 Schrodinger Suite 2021-3.
  0  0  0     0  0            999 V3000
M  V30 BEGIN CTAB
M  V30 COUNTS 71 74 0 0 0
M  V30 BEGIN ATOM
M  V30 1 C  21.3927 34.8568 87.7002 0
M  V30 2 C  21.3952 36.3874 87.5297 0
M  V30 3 N  20.5664 36.8092 86.3864 0
M  V30 4 C  19.2084 37.3201 86.6733 0
M  V30 5 C  18.4326 36.6224 87.8060 0
M  V30 6 C  21.0284 36.7657 85.1060 0
M  V30 7 O  20.2872 36.6304 84.1303 0
M  V30 8 C  22.5089 36.9692 84.8740 0
M  V30 9 C  23.2347 36.0731 84.0860 0
M  V30 10 C  24.6049 36.2665 83.8936 0
M  V30 11 C  25.2765 37.3738 84.4521 0
M  V30 12 C  24.5168 38.2820 85.2041 0
M  V30 13 C  23.1571 38.0846 85.4115 0
M  V30 14 C  26.7603 37.5693 84.2849 0
M  V30 15 N  27.4002 36.7266 83.4560 0 CHG=1
M  V30 16 C  27.5363 38.5126 84.9732 0
M  V30 17 C  28.9332 38.5612 84.8387 0
M  V30 18 C  29.5666 37.6050 83.9779 0
M  V30 19 C  28.7585 36.6680 83.2706 0
M  V30 20 C  30.9764 37.5247 83.7770 0
M  V30 21 C  31.5227 36.5521 82.9399 0
M  V30 22 C  30.7054 35.6368 82.2850 0
M  V30 23 C  29.3227 35.6843 82.4349 0
M  V30 24 N  29.7248 39.4965 85.5338 0
M  V30 25 C  29.2255 40.6694 86.2432 0
M  V30 26 C  29.2789 41.9420 85.3734 0
M  V30 27 C  29.1510 43.2347 86.1963 0
M  V30 28 N  29.2828 44.4861 85.2905 0 CHG=1
M  V30 29 C  27.9684 44.7569 84.5204 0
M  V30 30 C  28.1925 45.9571 83.5880 0
M  V30 31 C  28.6403 47.2149 84.3519 0
M  V30 32 C  29.8931 46.9307 85.1947 0
M  V30 33 C  29.7099 45.7168 86.1250 0
M  V30 34 H  22.0875 34.5484 88.4746 0
M  V30 35 H  20.4094 34.4841 87.9898 0
M  V30 36 H  21.6811 34.3446 86.7832 0
M  V30 37 H  22.4278 36.7171 87.4241 0
M  V30 38 H  21.0386 36.8633 88.4434 0
M  V30 39 H  19.3107 38.3748 86.9269 0
M  V30 40 H  18.5903 37.3066 85.7721 0
M  V30 41 H  17.4280 37.0386 87.8872 0
M  V30 42 H  18.3259 35.5554 87.6375 0
M  V30 43 H  18.9100 36.7565 88.7735 0
M  V30 44 H  22.7506 35.2165 83.6398 0
M  V30 45 H  25.1253 35.5304 83.3032 0
M  V30 46 H  24.9633 39.1609 85.6418 0
M  V30 47 H  22.6088 38.8114 85.9986 0
M  V30 48 H  27.0524 39.1963 85.6497 0
M  V30 49 H  31.6416 38.2125 84.2805 0
M  V30 50 H  32.5928 36.4999 82.7978 0
M  V30 51 H  31.1496 34.8839 81.6482 0
M  V30 52 H  28.6969 34.9753 81.9142 0
M  V30 53 H  30.7211 39.4707 85.3645 0
M  V30 54 H  29.8721 40.7956 87.1144 0
M  V30 55 H  28.2381 40.5338 86.6810 0
M  V30 56 H  28.5099 41.8755 84.6050 0
M  V30 57 H  30.2298 41.9677 84.8348 0
M  V30 58 H  29.9692 43.2951 86.9143 0
M  V30 59 H  28.2031 43.3228 86.7316 0
M  V30 60 H  27.1841 44.9480 85.2570 0
M  V30 61 H  27.7128 43.8645 83.9536 0
M  V30 62 H  27.2836 46.1580 83.0285 0
M  V30 63 H  28.9473 45.6988 82.8433 0
M  V30 64 H  28.8428 48.0211 83.6459 0
M  V30 65 H  27.8314 47.5676 84.9934 0
M  V30 66 H  30.7464 46.7570 84.5359 0
M  V30 67 H  30.1480 47.8078 85.7884 0
M  V30 68 H  28.9340 45.8814 86.8747 0
M  V30 69 H  30.6450 45.4610 86.6250 0
M  V30 70 H  30.0165 44.3269 84.5943 0
M  V30 71 H  26.8384 36.0572 82.9529 0
M  V30 END ATOM
M  V30 BEGIN BOND
M  V30 1 1 1 2
M  V30 2 1 1 34
M  V30 3 1 1 35
M  V30 4 1 1 36
M  V30 5 1 2 3
M  V30 6 1 2 37
M  V30 7 1 2 38
M  V30 8 1 3 4
M  V30 9 1 3 6
M  V30 10 1 4 5
M  V30 11 1 4 39
M  V30 12 1 4 40
M  V30 13 1 5 41
M  V30 14 1 5 42
M  V30 15 1 5 43
M  V30 16 2 6 7
M  V30 17 1 6 8
M  V30 18 2 8 9
M  V30 19 1 8 13
M  V30 20 1 9 10
M  V30 21 1 9 44
M  V30 22 2 10 11
M  V30 23 1 10 45
M  V30 24 1 11 12
M  V30 25 1 11 14
M  V30 26 2 12 13
M  V30 27 1 12 46
M  V30 28 1 13 47
M  V30 29 2 14 15
M  V30 30 1 14 16
M  V30 31 1 15 19
M  V30 32 1 15 71
M  V30 33 2 16 17
M  V30 34 1 16 48
M  V30 35 1 17 18
M  V30 36 1 17 24
M  V30 37 2 18 19
M  V30 38 1 18 20
M  V30 39 1 19 23
M  V30 40 2 20 21
M  V30 41 1 20 49
M  V30 42 1 21 22
M  V30 43 1 21 50
M  V30 44 2 22 23
M  V30 45 1 22 51
M  V30 46 1 23 52
M  V30 47 1 24 25
M  V30 48 1 24 53
M  V30 49 1 25 26
M  V30 50 1 25 54
M  V30 51 1 25 55
M  V30 52 1 26 27
M  V30 53 1 26 56
M  V30 54 1 26 57
M  V30 55 1 27 28
M  V30 56 1 27 58
M  V30 57 1 27 59
M  V30 58 1 28 29
M  V30 59 1 28 33
M  V30 60 1 28 70
M  V30 61 1 29 30
M  V30 62 1 29 60
M  V30 63 1 29 61
M  V30 64 1 30 31
M  V30 65 1 30 62
M  V30 66 1 30 63
M  V30 67 1 31 32
M  V30 68 1 31 64
M  V30 69 1 31 65
M  V30 70 1 32 33
M  V30 71 1 32 66
M  V30 72 1 32 67
M  V30 73 1 33 68
M  V30 74 1 33 69
M  V30 END BOND
M  V30 END CTAB
M  END
> <s_m_entry_id>
1429

> <s_m_entry_name>
result.3840

> <s_m_Source_Path>
D:\OneDrive - zju.edu.cn\DOC\A-Finished\LCK_VS\Planet\LCK-8617

> <s_m_Source_File>
glide-dock_SP_top1262_2_pv.maegz

> <i_m_Source_File_Index>
1429

> <PLANET_affinity>
7.05

> <i_lp_mmshare_version>
54117

> <i_f3d_flags>
0

> <s_epik_input>
W0NIM11bQ0gyXU4oW0NIMl1bQ0gzXSlDKD1PKWMxW2NIXVtjSF1jKFtjSF1bY0hdMSktYyhuYyhjMjMpW2NIXVtjSF1bY0hdW2NIXTMpW2NIXWMyW05IXVtDSDJdW0NIMl1bQ0gyXU40W0NIMl1bQ0gyXVtDSDJdW0NIMl1bQ0gyXTQ=

> <s_epik_cmdline>
J2VwaWtfcHl0aG9uJywgJy1waCcsICc3LjAnLCAnLXRuJywgJzgnLCAnLW1hJywgJzUwMCcsICctaW1hZScsICc8aW5maWxlLm1hZT4nLCAnLW9tYWUnLCAnPG91dGZpbGUubWFlPic=

> <r_epik_Ionization_Penalty>
  0.0173

> <r_epik_Ionization_Penalty_Charging>
  0.0173

> <r_epik_Ionization_Penalty_Neutral>
  0.0000

> <r_epik_State_Penalty>
  0.0131

> <r_epik_Charging_Adjusted_Penalty>
0.0303856

> <i_epik_Tot_Q>
2

> <i_epik_Tot_abs_Q>
2

> <s_lp_Force_Field>
S-OPLS

> <r_lp_Energy>
76.9441

> <b_lp_Chiralities_Consistent>
1

> <s_lp_Variant>
O=C(N(CC)CC)C1=CC=C(C2=NC3=CC=CC=C3C(NCCCN4CCCCC4)=C2)C=C1.Cl.Cl-1

> <s_i_glide_gridfile>
glide-grid_1

> <i_i_glide_lignum>
2618

> <i_i_glide_rotatable_bonds>
10

> <r_i_docking_score>
-7.28100567810393

> <r_i_glide_ligand_efficiency>
-0.220636535700119

> <r_i_glide_ligand_efficiency_sa>
-0.707699261884656

> <r_i_glide_ligand_efficiency_ln>
-1.61925796378052

> <r_i_glide_gscore>
-7.29410567810393

> <r_i_glide_lipo>
-3.52171382010151

> <r_i_glide_hbond>
-0.52

> <r_i_glide_metal>
0

> <r_i_glide_rewards>
-0.354939611739046

> <r_i_glide_evdw>
-42.0442428588867

> <r_i_glide_ecoul>
-9.54459095001221

> <r_i_glide_erotb>
0.702468981718207

> <r_i_glide_esite>
-0.066020442535414

> <r_i_glide_emodel>
-74.9675506062149

> <r_i_glide_energy>
-51.5888338088989

> <r_i_glide_einternal>
8.22504997253418

> <i_i_glide_confnum>
12

> <i_i_glide_posenum>
246

> <r_i_glide_eff_state_penalty>
0.0131

> <s_m_subgroup_title>
glide-dock_SP_top1262_2_pv

> <s_m_subgroupid>
glide-dock_SP_top1262_2_pv

> <b_m_subgroup_collapsed>
0

$$$$
O=C1C2=C(OCC(NCCCCCCCN3C[C@@H](CCC3)NC4=NC=C(Cl)C(NC5=C(C=CC=C5)S(C(C)C)(=O)=...
                    3D
 Schrodinger Suite 2021-3.
  0  0  0     0  0            999 V3000
M  V30 BEGIN CTAB
M  V30 COUNTS 108 113 0 0 0
M  V30 BEGIN ATOM
M  V30 1 C  21.3926 37.3552 87.0598 0
M  V30 2 C  22.2473 36.5842 86.0293 0
M  V30 3 C  21.6461 36.5856 84.6058 0
M  V30 4 O  22.0916 35.9101 83.6850 0
M  V30 5 N  20.5792 37.3879 84.4043 0
M  V30 6 C  20.0695 38.4120 85.1157 0
M  V30 7 O  19.2253 39.1568 84.6216 0
M  V30 8 C  20.7145 38.6368 86.5116 0 CFG=2
M  V30 9 N  21.4736 39.9154 86.5595 0
M  V30 10 C  22.6200 40.1500 85.8547 0
M  V30 11 O  23.2137 39.3691 85.1137 0
M  V30 12 C  21.0598 40.9889 87.2881 0
M  V30 13 O  20.0857 41.0470 88.0422 0
M  V30 14 C  22.0360 42.0680 86.9798 0
M  V30 15 C  22.9930 41.5534 86.1497 0
M  V30 16 C  22.0830 43.4004 87.3782 0
M  V30 17 C  23.1034 44.2192 86.8892 0
M  V30 18 C  24.0898 43.6904 86.0514 0
M  V30 19 C  24.0621 42.3294 85.6913 0
M  V30 20 O  24.9976 41.6781 84.9077 0
M  V30 21 C  26.0763 42.3803 84.2850 0
M  V30 22 C  27.1231 42.9156 85.2822 0
M  V30 23 O  27.2096 42.4535 86.4222 0
M  V30 24 N  27.8848 43.9335 84.8389 0
M  V30 25 C  28.8745 44.6555 85.6400 0
M  V30 26 C  28.2223 45.6143 86.6618 0
M  V30 27 C  29.2167 46.2700 87.6494 0
M  V30 28 C  28.6211 46.5655 89.0459 0
M  V30 29 C  28.3910 45.2781 89.8639 0
M  V30 30 C  27.8010 45.4746 91.2731 0
M  V30 31 C  27.7393 44.1908 92.1385 0
M  V30 32 N  26.8492 43.1028 91.4786 0 CHG=1 CFG=2
M  V30 33 C  26.0752 42.2758 92.5419 0
M  V30 34 C  25.1365 41.2632 91.8351 0 CFG=1
M  V30 35 C  25.8663 40.3815 90.7954 0
M  V30 36 C  26.7370 41.2112 89.8367 0
M  V30 37 C  27.6915 42.1367 90.6033 0
M  V30 38 N  24.5861 40.3596 92.8445 0
M  V30 39 C  23.2844 40.4369 93.3513 0
M  V30 40 N  22.8825 39.3479 94.0430 0
M  V30 41 C  21.6578 39.3928 94.6112 0
M  V30 42 C  20.8009 40.4780 94.4435 0
M  V30 43 Cl 19.2046 40.3761 95.0951 0
M  V30 44 C  21.2656 41.5526 93.6435 0
M  V30 45 N  22.5214 41.5345 93.1228 0
M  V30 46 N  20.3724 42.5691 93.2581 0
M  V30 47 C  20.3848 43.5583 92.2495 0
M  V30 48 C  19.1819 44.2094 91.9013 0
M  V30 49 S  17.6415 43.9376 92.7939 0
M  V30 50 O  16.5659 44.5828 92.0342 0
M  V30 51 O  17.5682 42.5039 93.1048 0
M  V30 52 C  17.8792 44.9024 94.4194 0
M  V30 53 C  16.5402 44.9471 95.1688 0
M  V30 54 C  18.4184 46.3186 94.1385 0
M  V30 55 C  19.1576 45.1190 90.8360 0
M  V30 56 C  20.3187 45.4251 90.1364 0
M  V30 57 C  21.5205 44.8323 90.5037 0
M  V30 58 C  21.5513 43.9032 91.5418 0
M  V30 59 H  20.6207 36.6885 87.4472 0
M  V30 60 H  22.0117 37.6020 87.9234 0
M  V30 61 H  23.2454 37.0147 85.9540 0
M  V30 62 H  22.3963 35.5563 86.3555 0
M  V30 63 H  20.1948 37.3154 83.4756 0
M  V30 64 H  19.8358 38.7872 87.1419 0
M  V30 65 H  21.2993 43.8222 87.9926 0
M  V30 66 H  23.1153 45.2692 87.1454 0
M  V30 67 H  24.8572 44.3527 85.6832 0
M  V30 68 H  26.5734 41.6512 83.6440 0
M  V30 69 H  25.6831 43.1695 83.6438 0
M  V30 70 H  27.7941 44.2296 83.8765 0
M  V30 71 H  29.5213 43.9415 86.1548 0
M  V30 72 H  29.5509 45.2064 84.9859 0
M  V30 73 H  27.6774 46.3959 86.1290 0
M  V30 74 H  27.4554 45.0652 87.2053 0
M  V30 75 H  30.0959 45.6363 87.7722 0
M  V30 76 H  29.5896 47.1941 87.2063 0
M  V30 77 H  29.3064 47.2169 89.5912 0
M  V30 78 H  27.6906 47.1225 88.9424 0
M  V30 79 H  27.7132 44.6389 89.3017 0
M  V30 80 H  29.3400 44.7475 89.9447 0
M  V30 81 H  28.3977 46.2147 91.8070 0
M  V30 82 H  26.8023 45.9085 91.1922 0
M  V30 83 H  28.7199 43.7501 92.3309 0
M  V30 84 H  27.2897 44.4270 93.1041 0
M  V30 85 H  26.8157 41.7944 93.1835 0
M  V30 86 H  25.4984 42.9842 93.1371 0
M  V30 87 H  24.3232 41.7920 91.3333 0
M  V30 88 H  25.1335 39.8395 90.1953 0
M  V30 89 H  26.4818 39.6245 91.2853 0
M  V30 90 H  26.1056 41.8044 89.1703 0
M  V30 91 H  27.3093 40.5484 89.1826 0
M  V30 92 H  28.3260 42.6933 89.9186 0
M  V30 93 H  28.3429 41.5892 91.2865 0
M  V30 94 H  25.1160 39.5373 93.0924 0
M  V30 95 H  21.3565 38.5259 95.1839 0
M  V30 96 H  19.4482 42.4349 93.6499 0
M  V30 97 H  18.6055 44.3375 95.0007 0
M  V30 98 H  16.6596 45.3396 96.1808 0
M  V30 99 H  15.8109 45.5690 94.6465 0
M  V30 100 H  16.1095 43.9526 95.2433 0
M  V30 101 H  18.4933 46.8982 95.0589 0
M  V30 102 H  19.4116 46.2876 93.6942 0
M  V30 103 H  17.7655 46.8631 93.4561 0
M  V30 104 H  18.2378 45.6052 90.5416 0
M  V30 105 H  20.2831 46.1253 89.3124 0
M  V30 106 H  22.4272 45.0794 89.9707 0
M  V30 107 H  22.5111 43.4786 91.7737 0
M  V30 108 H  26.1713 43.5663 90.8871 0
M  V30 END ATOM
M  V30 BEGIN BOND
M  V30 1 1 1 2
M  V30 2 1 1 8
M  V30 3 1 1 59
M  V30 4 1 1 60
M  V30 5 1 2 3
M  V30 6 1 2 61
M  V30 7 1 2 62
M  V30 8 2 3 4
M  V30 9 1 3 5
M  V30 10 1 5 6
M  V30 11 1 5 63
M  V30 12 2 6 7
M  V30 13 1 6 8
M  V30 14 1 8 9
M  V30 15 1 8 64
M  V30 16 1 9 10
M  V30 17 1 9 12
M  V30 18 2 10 11
M  V30 19 1 10 15
M  V30 20 2 12 13
M  V30 21 1 12 14
M  V30 22 2 14 15
M  V30 23 1 14 16
M  V30 24 1 15 19
M  V30 25 2 16 17
M  V30 26 1 16 65
M  V30 27 1 17 18
M  V30 28 1 17 66
M  V30 29 2 18 19
M  V30 30 1 18 67
M  V30 31 1 19 20
M  V30 32 1 20 21
M  V30 33 1 21 22
M  V30 34 1 21 68
M  V30 35 1 21 69
M  V30 36 2 22 23
M  V30 37 1 22 24
M  V30 38 1 24 25
M  V30 39 1 24 70
M  V30 40 1 25 26
M  V30 41 1 25 71
M  V30 42 1 25 72
M  V30 43 1 26 27
M  V30 44 1 26 73
M  V30 45 1 26 74
M  V30 46 1 27 28
M  V30 47 1 27 75
M  V30 48 1 27 76
M  V30 49 1 28 29
M  V30 50 1 28 77
M  V30 51 1 28 78
M  V30 52 1 29 30
M  V30 53 1 29 79
M  V30 54 1 29 80
M  V30 55 1 30 31
M  V30 56 1 30 81
M  V30 57 1 30 82
M  V30 58 1 31 32
M  V30 59 1 31 83
M  V30 60 1 31 84
M  V30 61 1 32 33
M  V30 62 1 32 37
M  V30 63 1 32 108
M  V30 64 1 33 34
M  V30 65 1 33 85
M  V30 66 1 33 86
M  V30 67 1 34 35
M  V30 68 1 34 38
M  V30 69 1 34 87
M  V30 70 1 35 36
M  V30 71 1 35 88
M  V30 72 1 35 89
M  V30 73 1 36 37
M  V30 74 1 36 90
M  V30 75 1 36 91
M  V30 76 1 37 92
M  V30 77 1 37 93
M  V30 78 1 38 39
M  V30 79 1 38 94
M  V30 80 2 39 40
M  V30 81 1 39 45
M  V30 82 1 40 41
M  V30 83 2 41 42
M  V30 84 1 41 95
M  V30 85 1 42 43
M  V30 86 1 42 44
M  V30 87 2 44 45
M  V30 88 1 44 46
M  V30 89 1 46 47
M  V30 90 1 46 96
M  V30 91 2 47 48
M  V30 92 1 47 58
M  V30 93 1 48 49
M  V30 94 1 48 55
M  V30 95 2 49 50
M  V30 96 2 49 51
M  V30 97 1 49 52
M  V30 98 1 52 53
M  V30 99 1 52 54
M  V30 100 1 52 97
M  V30 101 1 53 98
M  V30 102 1 53 99
M  V30 103 1 53 100
M  V30 104 1 54 101
M  V30 105 1 54 102
M  V30 106 1 54 103
M  V30 107 2 55 56
M  V30 108 1 55 104
M  V30 109 1 56 57
M  V30 110 1 56 105
M  V30 111 2 57 58
M  V30 112 1 57 106
M  V30 113 1 58 107
M  V30 END BOND
M  V30 END CTAB
M  END
> <s_m_entry_id>
1433

> <s_m_entry_name>
result.862

> <s_m_Source_Path>
D:\OneDrive - zju.edu.cn\DOC\A-Finished\LCK_VS\Planet\LCK-8617

> <s_m_Source_File>
glide-dock_SP_top1262_2_pv.maegz

> <i_m_Source_File_Index>
1433

> <PLANET_affinity>
11.084

> <i_lp_mmshare_version>
54117

> <i_f3d_flags>
0

> <s_epik_input>
Tz1DMVtDSDJdW0NIMl1bQ0BIXShDKD1PKVtOSF0xKU4oQzI9TylDKD1PKWMoYzIzKWMoW2NIXVtjSF1bY0hdMylPW0NIMl1DKD1PKVtOSF1bQ0gyXVtDSDJdW0NIMl1bQ0gyXVtDSDJdW0NIMl1bQ0gyXU40W0NIMl1bQ0BASF0oW0NIMl1bQ0gyXVtDSDJdNClbTkhdYzVuW2NIXWMoQ2wpYyhuNSlbTkhdYzZjKFMoPU8pKD1PKVtDSF0oW0NIM10pW0NIM10pW2NIXVtjSF1bY0hdW2NIXTY=

> <s_epik_cmdline>
J2VwaWtfcHl0aG9uJywgJy1waCcsICc3LjAnLCAnLXRuJywgJzgnLCAnLW1hJywgJzUwMCcsICctaW1hZScsICc8aW5maWxlLm1hZT4nLCAnLW9tYWUnLCAnPG91dGZpbGUubWFlPic=

> <r_epik_Ionization_Penalty>
  0.0009

> <r_epik_Ionization_Penalty_Charging>
  0.0005

> <r_epik_Ionization_Penalty_Neutral>
  0.0004

> <r_epik_State_Penalty>
  0.0000

> <r_epik_Charging_Adjusted_Penalty>
0.000468265

> <i_epik_Tot_Q>
1

> <i_epik_Tot_abs_Q>
1

> <s_lp_Force_Field>
S-OPLS

> <r_lp_Energy>
60.7977

> <b_lp_Chiralities_Consistent>
1

> <s_lp_Variant>
O=C1C2=C(OCC(NCCCCCCCN3C[C@@H](CCC3)NC4=NC=C(Cl)C(NC5=C(C=CC=C5)S(C(C)C)(=O)=...-1

> <s_i_glide_gridfile>
glide-grid_1

> <i_i_glide_lignum>
153

> <i_i_glide_rotatable_bonds>
19

> <r_i_docking_score>
-7.27955399180295

> <r_i_glide_ligand_efficiency>
-0.125509551582809

> <r_i_glide_ligand_efficiency_sa>
-0.485831990740002

> <r_i_glide_ligand_efficiency_ln>
-1.43852108928639

> <r_i_glide_gscore>
-7.27955399180295

> <r_i_glide_lipo>
-1.94531504484535

> <r_i_glide_hbond>
-0.331143203768721

> <r_i_glide_metal>
0

> <r_i_glide_rewards>
-0.968287754444533

> <r_i_glide_evdw>
-60.0422859191895

> <r_i_glide_ecoul>
-8.71674346923828

> <r_i_glide_erotb>
0.349781685626415

> <r_i_glide_esite>
-0.0749638580255474

> <r_i_glide_emodel>
-98.9885449559186

> <r_i_glide_energy>
-68.7590293884277

> <r_i_glide_einternal>
8.13230419158936

> <i_i_glide_confnum>
997

> <i_i_glide_posenum>
363

> <r_i_glide_eff_state_penalty>
0

> <r_lp_tautomer_probability>
1

> <s_m_subgroup_title>
glide-dock_SP_top1262_2_pv

> <s_m_subgroupid>
glide-dock_SP_top1262_2_pv

> <b_m_subgroup_collapsed>
0

$$$$
NCC1(C(NC2=CC(OC(N(C)C)=O)=CC=C2)=O)CCN(C3=C4C(NC=C4C)=NC=N3)CC1
                    3D
 Schrodinger Suite 2021-3.
  0  0  0     0  0            999 V3000
M  V30 BEGIN CTAB
M  V30 COUNTS 63 66 0 0 0
M  V30 BEGIN ATOM
M  V30 1 C  29.9234 43.6688 92.0622 0
M  V30 2 N  29.8135 42.9637 90.7795 0
M  V30 3 C  31.0101 42.9922 89.9368 0
M  V30 4 C  28.6305 42.3598 90.3222 0
M  V30 5 O  28.5247 41.7703 89.2434 0
M  V30 6 O  27.6173 42.4838 91.2477 0
M  V30 7 C  26.3390 41.9716 91.0923 0
M  V30 8 C  25.6511 41.6490 92.2643 0
M  V30 9 C  24.3482 41.1566 92.2147 0
M  V30 10 C  23.7144 40.9690 90.9865 0
M  V30 11 C  25.6820 41.7981 89.8603 0
M  V30 12 C  24.3846 41.2806 89.7938 0
M  V30 13 N  23.8705 41.0976 88.4955 0
M  V30 14 C  22.6644 40.6508 88.0768 0
M  V30 15 O  21.7418 40.3573 88.8422 0
M  V30 16 C  22.4244 40.5601 86.5194 0
M  V30 17 C  21.4928 41.7439 86.0836 0
M  V30 18 N  22.0830 43.1567 86.2874 0 CHG=1
M  V30 19 C  23.7594 40.5334 85.7070 0
M  V30 20 C  24.6151 39.2496 85.8594 0
M  V30 21 N  23.8704 38.0022 85.6267 0
M  V30 22 C  22.6503 37.9748 86.4603 0
M  V30 23 C  21.7325 39.1958 86.2182 0
M  V30 24 C  24.1957 37.0386 84.6603 0
M  V30 25 N  23.1555 36.2520 84.2576 0
M  V30 26 C  23.3533 35.3893 83.2342 0
M  V30 27 N  24.4951 35.1819 82.5374 0
M  V30 28 C  25.5149 35.9200 82.9841 0
M  V30 29 C  25.4870 36.8618 84.0674 0
M  V30 30 N  26.7840 35.9009 82.4649 0
M  V30 31 C  27.5847 36.7090 83.2251 0
M  V30 32 C  26.8713 37.2963 84.2549 0
M  V30 33 C  27.5096 38.1503 85.3326 0
M  V30 34 H  29.6315 44.7145 91.9409 0
M  V30 35 H  30.9511 43.6474 92.4306 0
M  V30 36 H  29.2955 43.2289 92.8398 0
M  V30 37 H  30.8558 42.5259 88.9625 0
M  V30 38 H  31.3283 44.0219 89.7632 0
M  V30 39 H  31.8292 42.4641 90.4294 0
M  V30 40 H  26.1304 41.7855 93.2229 0
M  V30 41 H  23.8337 40.9078 93.1317 0
M  V30 42 H  22.7151 40.5646 90.9923 0
M  V30 43 H  26.1779 42.0710 88.9417 0
M  V30 44 H  24.5348 41.2983 87.7646 0
M  V30 45 H  21.2831 41.7123 85.0141 0
M  V30 46 H  20.5451 41.7655 86.6260 0
M  V30 47 H  21.3866 43.8581 86.0430 0
M  V30 48 H  22.3285 43.3084 87.2550 0
M  V30 49 H  23.5313 40.6111 84.6418 0
M  V30 50 H  24.3708 41.4132 85.9029 0
M  V30 51 H  25.3624 39.3459 85.0824 0
M  V30 52 H  25.1211 39.2069 86.8255 0
M  V30 53 H  22.0879 37.0475 86.3457 0
M  V30 54 H  22.9838 37.9676 87.4991 0
M  V30 55 H  20.7940 39.0886 86.7654 0
M  V30 56 H  21.4437 39.1630 85.1655 0
M  V30 57 H  22.4995 34.7937 82.9373 0
M  V30 58 H  27.1311 35.3721 81.6731 0
M  V30 59 H  28.6378 36.7756 82.9889 0
M  V30 60 H  28.5796 37.9505 85.4070 0
M  V30 61 H  27.4358 39.2186 85.1323 0
M  V30 62 H  27.0950 37.9512 86.3198 0
M  V30 63 H  22.8946 43.3080 85.7049 0
M  V30 END ATOM
M  V30 BEGIN BOND
M  V30 1 1 1 2
M  V30 2 1 1 34
M  V30 3 1 1 35
M  V30 4 1 1 36
M  V30 5 1 2 3
M  V30 6 1 2 4
M  V30 7 1 3 37
M  V30 8 1 3 38
M  V30 9 1 3 39
M  V30 10 2 4 5
M  V30 11 1 4 6
M  V30 12 1 6 7
M  V30 13 2 7 8
M  V30 14 1 7 11
M  V30 15 1 8 9
M  V30 16 1 8 40
M  V30 17 2 9 10
M  V30 18 1 9 41
M  V30 19 1 10 12
M  V30 20 1 10 42
M  V30 21 2 11 12
M  V30 22 1 11 43
M  V30 23 1 12 13
M  V30 24 1 13 14
M  V30 25 1 13 44
M  V30 26 2 14 15
M  V30 27 1 14 16
M  V30 28 1 16 17
M  V30 29 1 16 19
M  V30 30 1 16 23
M  V30 31 1 17 18
M  V30 32 1 17 45
M  V30 33 1 17 46
M  V30 34 1 18 47
M  V30 35 1 18 48
M  V30 36 1 18 63
M  V30 37 1 19 20
M  V30 38 1 19 49
M  V30 39 1 19 50
M  V30 40 1 20 21
M  V30 41 1 20 51
M  V30 42 1 20 52
M  V30 43 1 21 22
M  V30 44 1 21 24
M  V30 45 1 22 23
M  V30 46 1 22 53
M  V30 47 1 22 54
M  V30 48 1 23 55
M  V30 49 1 23 56
M  V30 50 2 24 25
M  V30 51 1 24 29
M  V30 52 1 25 26
M  V30 53 2 26 27
M  V30 54 1 26 57
M  V30 55 1 27 28
M  V30 56 2 28 29
M  V30 57 1 28 30
M  V30 58 1 29 32
M  V30 59 1 30 31
M  V30 60 1 30 58
M  V30 61 2 31 32
M  V30 62 1 31 59
M  V30 63 1 32 33
M  V30 64 1 33 60
M  V30 65 1 33 61
M  V30 66 1 33 62
M  V30 END BOND
M  V30 END CTAB
M  END
> <s_m_entry_id>
1438

> <s_m_entry_name>
result.6142

> <s_m_Source_Path>
D:\OneDrive - zju.edu.cn\DOC\A-Finished\LCK_VS\Planet\LCK-8617

> <s_m_Source_File>
glide-dock_SP_top1262_2_pv.maegz

> <i_m_Source_File_Index>
1438

> <PLANET_affinity>
8.218

> <i_lp_mmshare_version>
54117

> <i_f3d_flags>
0

> <s_epik_input>
W0NIM11OKFtDSDNdKUMoPU8pT2MxW2NIXVtjSF1bY0hdYyhbY0hdMSlbTkhdQyg9TylDMihbQ0gyXVtOSDJdKVtDSDJdW0NIMl1OKFtDSDJdW0NIMl0yKWMobltjSF1uMyljKGMzNCljKFtDSDNdKVtjSF1bbkhdNA==

> <s_epik_cmdline>
J2VwaWtfcHl0aG9uJywgJy1waCcsICc3LjAnLCAnLXRuJywgJzgnLCAnLW1hJywgJzUwMCcsICctaW1hZScsICc8aW5maWxlLm1hZT4nLCAnLW9tYWUnLCAnPG91dGZpbGUubWFlPic=

> <r_epik_Ionization_Penalty>
  0.0245

> <r_epik_Ionization_Penalty_Charging>
  0.0020

> <r_epik_Ionization_Penalty_Neutral>
  0.0224

> <r_epik_State_Penalty>
  0.0169

> <r_epik_Charging_Adjusted_Penalty>
0.0189571

> <i_epik_Tot_Q>
1

> <i_epik_Tot_abs_Q>
1

> <s_lp_Force_Field>
S-OPLS

> <r_lp_Energy>
74.9585

> <b_lp_Chiralities_Consistent>
1

> <s_lp_Variant>
NCC1(C(NC2=CC(OC(N(C)C)=O)=CC=C2)=O)CCN(C3=C4C(NC=C4C)=NC=N3)CC1-1

> <s_i_glide_gridfile>
glide-grid_1

> <i_i_glide_lignum>
1055

> <i_i_glide_rotatable_bonds>
8

> <r_i_docking_score>
-7.27706512194961

> <r_i_glide_ligand_efficiency>
-0.220517124907564

> <r_i_glide_ligand_efficiency_sa>
-0.70731624766861

> <r_i_glide_ligand_efficiency_ln>
-1.61838160449491

> <r_i_glide_gscore>
-7.29396512194961

> <r_i_glide_lipo>
-1.73518514941446

> <r_i_glide_hbond>
-0.55385735777849

> <r_i_glide_metal>
0

> <r_i_glide_rewards>
-1.90827478045539

> <r_i_glide_evdw>
-36.9768562316895

> <r_i_glide_ecoul>
-10.4763774871826

> <r_i_glide_erotb>
0.41154107083427

> <r_i_glide_esite>
-0.0878894704736632

> <r_i_glide_emodel>
-72.2996769626322

> <r_i_glide_energy>
-47.4532337188721

> <r_i_glide_einternal>
0.873328149318695

> <i_i_glide_confnum>
86

> <i_i_glide_posenum>
384

> <r_i_glide_eff_state_penalty>
0.0169

> <r_lp_tautomer_probability>
0.999998

> <s_m_subgroup_title>
glide-dock_SP_top1262_2_pv

> <s_m_subgroupid>
glide-dock_SP_top1262_2_pv

> <b_m_subgroup_collapsed>
0

$$$$
O=C(N1CCC2=C1C=CC(OC3=NC=NC(NC(C)=O)=C3)=C2)NC4=CC=C(CN5CCN(C)CC5)C(C(F)(F)F)=C4
                    3D
 Schrodinger Suite 2021-3.
  0  0  0     0  0            999 V3000
M  V30 BEGIN CTAB
M  V30 COUNTS 72 76 0 0 0
M  V30 BEGIN ATOM
M  V30 1 C  34.0911 36.3159 86.4275 0
M  V30 2 C  34.2452 36.1823 87.9576 0
M  V30 3 N  35.2719 37.1011 88.4720 0 CFG=2
M  V30 4 C  35.4240 36.9014 89.9112 0
M  V30 5 C  34.8837 38.4891 88.1904 0
M  V30 6 C  34.8097 38.7189 86.6633 0
M  V30 7 N  33.7200 37.7834 86.0879 0 CHG=1
M  V30 8 C  33.5028 37.9927 84.5693 0
M  V30 9 C  32.0760 37.6506 84.1407 0
M  V30 10 C  31.7508 36.5622 83.3005 0
M  V30 11 C  32.8331 35.6516 82.7000 0
M  V30 12 F  33.6323 36.3663 81.9075 0
M  V30 13 F  33.5655 35.0989 83.6636 0
M  V30 14 F  32.3251 34.6581 81.9754 0
M  V30 15 C  30.3980 36.3080 83.0147 0
M  V30 16 C  31.0580 38.4823 84.6159 0
M  V30 17 C  29.7267 38.2214 84.3192 0
M  V30 18 C  29.3803 37.1068 83.5453 0
M  V30 19 N  28.0487 36.7437 83.2626 0
M  V30 20 C  26.9570 36.9506 84.0428 0
M  V30 21 O  27.0065 37.6040 85.0876 0
M  V30 22 N  25.8149 36.3245 83.6348 0
M  V30 23 C  25.6163 35.8988 82.2389 0
M  V30 24 C  24.1688 35.4409 82.1414 0
M  V30 25 C  24.5539 36.4073 84.2637 0
M  V30 26 C  23.5584 35.9567 83.3998 0
M  V30 27 C  24.2199 36.7286 85.5861 0
M  V30 28 C  22.8820 36.7191 85.9799 0
M  V30 29 C  21.8703 36.3761 85.0701 0
M  V30 30 C  22.2211 35.9546 83.7906 0
M  V30 31 O  20.5373 36.4267 85.4139 0
M  V30 32 C  20.0436 37.5370 86.0689 0
M  V30 33 N  18.9626 37.3016 86.8541 0
M  V30 34 C  18.5108 38.3579 87.5770 0
M  V30 35 N  19.0536 39.6037 87.5956 0
M  V30 36 C  20.1101 39.8268 86.7631 0
M  V30 37 C  20.6097 38.8167 85.9428 0
M  V30 38 N  20.7737 41.0603 86.7064 0
M  V30 39 C  20.9197 41.9563 87.7008 0
M  V30 40 O  20.4837 41.8198 88.8434 0
M  V30 41 C  21.7358 43.1968 87.3628 0
M  V30 42 H  33.2828 35.6832 86.0614 0
M  V30 43 H  35.0133 36.0600 85.8997 0
M  V30 44 H  33.2830 36.3526 88.4436 0
M  V30 45 H  34.5320 35.1566 88.1943 0
M  V30 46 H  36.1940 37.5602 90.3167 0
M  V30 47 H  34.4932 37.0933 90.4500 0
M  V30 48 H  35.7310 35.8759 90.1256 0
M  V30 49 H  35.6243 39.1686 88.6166 0
M  V30 50 H  33.9276 38.7302 88.6645 0
M  V30 51 H  35.7499 38.4858 86.1570 0
M  V30 52 H  34.5143 39.7437 86.4285 0
M  V30 53 H  34.2904 37.4404 84.0560 0
M  V30 54 H  33.6815 39.0530 84.3765 0
M  V30 55 H  30.1302 35.4659 82.3918 0
M  V30 56 H  31.2922 39.3379 85.2320 0
M  V30 57 H  28.9769 38.8923 84.7107 0
M  V30 58 H  27.9222 36.1445 82.4603 0
M  V30 59 H  25.6802 36.8179 81.6531 0
M  V30 60 H  26.3626 35.2233 81.8148 0
M  V30 61 H  24.1170 34.3569 82.1299 0
M  V30 62 H  23.6831 35.7995 81.2410 0
M  V30 63 H  24.9712 37.0088 86.3090 0
M  V30 64 H  22.6202 36.9975 86.9896 0
M  V30 65 H  21.4531 35.6203 83.1096 0
M  V30 66 H  17.6401 38.2009 88.1982 0
M  V30 67 H  21.4481 38.9955 85.2858 0
M  V30 68 H  21.2813 41.2458 85.8551 0
M  V30 69 H  22.7871 43.0397 87.6117 0
M  V30 70 H  21.3698 44.0468 87.9428 0
M  V30 71 H  21.6609 43.4610 86.3053 0
M  V30 72 H  32.8526 37.9970 86.5635 0
M  V30 END ATOM
M  V30 BEGIN BOND
M  V30 1 1 1 2
M  V30 2 1 1 7
M  V30 3 1 1 42
M  V30 4 1 1 43
M  V30 5 1 2 3
M  V30 6 1 2 44
M  V30 7 1 2 45
M  V30 8 1 3 4
M  V30 9 1 3 5
M  V30 10 1 4 46
M  V30 11 1 4 47
M  V30 12 1 4 48
M  V30 13 1 5 6
M  V30 14 1 5 49
M  V30 15 1 5 50
M  V30 16 1 6 7
M  V30 17 1 6 51
M  V30 18 1 6 52
M  V30 19 1 7 8
M  V30 20 1 7 72
M  V30 21 1 8 9
M  V30 22 1 8 53
M  V30 23 1 8 54
M  V30 24 2 9 10
M  V30 25 1 9 16
M  V30 26 1 10 11
M  V30 27 1 10 15
M  V30 28 1 11 12
M  V30 29 1 11 13
M  V30 30 1 11 14
M  V30 31 2 15 18
M  V30 32 1 15 55
M  V30 33 2 16 17
M  V30 34 1 16 56
M  V30 35 1 17 18
M  V30 36 1 17 57
M  V30 37 1 18 19
M  V30 38 1 19 20
M  V30 39 1 19 58
M  V30 40 2 20 21
M  V30 41 1 20 22
M  V30 42 1 22 23
M  V30 43 1 22 25
M  V30 44 1 23 24
M  V30 45 1 23 59
M  V30 46 1 23 60
M  V30 47 1 24 26
M  V30 48 1 24 61
M  V30 49 1 24 62
M  V30 50 2 25 26
M  V30 51 1 25 27
M  V30 52 1 26 30
M  V30 53 2 27 28
M  V30 54 1 27 63
M  V30 55 1 28 29
M  V30 56 1 28 64
M  V30 57 2 29 30
M  V30 58 1 29 31
M  V30 59 1 30 65
M  V30 60 1 31 32
M  V30 61 2 32 33
M  V30 62 1 32 37
M  V30 63 1 33 34
M  V30 64 2 34 35
M  V30 65 1 34 66
M  V30 66 1 35 36
M  V30 67 2 36 37
M  V30 68 1 36 38
M  V30 69 1 37 67
M  V30 70 1 38 39
M  V30 71 1 38 68
M  V30 72 2 39 40
M  V30 73 1 39 41
M  V30 74 1 41 69
M  V30 75 1 41 70
M  V30 76 1 41 71
M  V30 END BOND
M  V30 END CTAB
M  END
> <s_m_entry_id>
1445

> <s_m_entry_name>
result.1691

> <s_m_Source_Path>
D:\OneDrive - zju.edu.cn\DOC\A-Finished\LCK_VS\Planet\LCK-8617

> <s_m_Source_File>
glide-dock_SP_top1262_2_pv.maegz

> <i_m_Source_File_Index>
1445

> <PLANET_affinity>
9.496

> <i_lp_mmshare_version>
54117

> <i_f3d_flags>
0

> <s_epik_input>
W0NIM11OMVtDSDJdW0NIMl1OKFtDSDJdW0NIMl0xKVtDSDJdYzJjKEMoRikoRilGKVtjSF1jKFtjSF1bY0hdMilbTkhdQyg9TylOM1tDSDJdW0NIMl1jKGMzNClbY0hdYyhbY0hdW2NIXTQpT2M1bltjSF1uYyhbY0hdNSlbTkhdQyg9TylbQ0gzXQ==

> <s_epik_cmdline>
J2VwaWtfcHl0aG9uJywgJy1waCcsICc3LjAnLCAnLXRuJywgJzgnLCAnLW1hJywgJzUwMCcsICctaW1hZScsICc8aW5maWxlLm1hZT4nLCAnLW9tYWUnLCAnPG91dGZpbGUubWFlPic=

> <r_epik_Ionization_Penalty>
  0.0168

> <r_epik_Ionization_Penalty_Charging>
  0.0155

> <r_epik_Ionization_Penalty_Neutral>
  0.0013

> <r_epik_State_Penalty>
  0.2066

> <r_epik_Charging_Adjusted_Penalty>
0.222046

> <i_epik_Tot_Q>
1

> <i_epik_Tot_abs_Q>
1

> <s_lp_Force_Field>
S-OPLS

> <r_lp_Energy>
83.5825

> <b_lp_Chiralities_Consistent>
1

> <s_lp_Variant>
O=C(N1CCC2=C1C=CC(OC3=NC=NC(NC(C)=O)=C3)=C2)NC4=CC=C(CN5CCN(C)CC5)C(C(F)(F)F)=C4-1

> <s_i_glide_gridfile>
glide-grid_1

> <i_i_glide_lignum>
335

> <i_i_glide_rotatable_bonds>
10

> <r_i_docking_score>
-7.27330498958202

> <r_i_glide_ligand_efficiency>
-0.177397682672732

> <r_i_glide_ligand_efficiency_sa>
-0.611705747038856

> <r_i_glide_ligand_efficiency_ln>
-1.54305585798913

> <r_i_glide_gscore>
-7.47990498958202

> <r_i_glide_lipo>
-2.88670437619184

> <r_i_glide_hbond>
-0.41250874826685

> <r_i_glide_metal>
0

> <r_i_glide_rewards>
-0.700747823378363

> <r_i_glide_evdw>
-46.3733825683594

> <r_i_glide_ecoul>
-9.45182704925537

> <r_i_glide_erotb>
0.421854227062851

> <r_i_glide_esite>
-0.165355083001545

> <r_i_glide_emodel>
-81.9833508896416

> <r_i_glide_energy>
-55.8252096176147

> <r_i_glide_einternal>
7.96813583374023

> <i_i_glide_confnum>
39

> <i_i_glide_posenum>
128

> <r_i_glide_eff_state_penalty>
0.2066

> <r_lp_tautomer_probability>
1

> <s_m_subgroup_title>
glide-dock_SP_top1262_2_pv

> <s_m_subgroupid>
glide-dock_SP_top1262_2_pv

> <b_m_subgroup_collapsed>
0

$$$$
O=C1C2=C(OC3=CC(C#CC4=CC(C(NC(C)(C)C)=O)=CC(C)=N4)=CC=C23)C(C)(C)C5=CC(NS(C)(...
                    3D
 Schrodinger Suite 2021-3.
  0  0  0     0  0            999 V3000
M  V30 BEGIN CTAB
M  V30 COUNTS 71 75 0 0 0
M  V30 BEGIN ATOM
M  V30 1 C  20.1549 39.2999 85.9879 0
M  V30 2 S  20.2527 37.5070 86.5383 0
M  V30 3 O  18.8832 37.1585 86.9242 0
M  V30 4 O  21.2490 37.4843 87.6155 0
M  V30 5 N  20.6962 36.7568 85.2357 0 CHG=-1
M  V30 6 C  21.9885 36.6757 84.7771 0
M  V30 7 C  23.0966 37.3894 85.2628 0
M  V30 8 C  22.2161 35.8008 83.7200 0
M  V30 9 C  23.4928 35.5566 83.2438 0
M  V30 10 C  24.6014 36.2330 83.7687 0
M  V30 11 C  25.9465 35.8579 83.2180 0
M  V30 12 O  26.0986 34.9111 82.4436 0
M  V30 13 C  24.4047 37.2197 84.7734 0
M  V30 14 C  25.5667 38.1021 85.3229 0
M  V30 15 C  25.7836 37.8135 86.8226 0
M  V30 16 C  25.2473 39.5962 85.0903 0
M  V30 17 C  26.8491 37.7484 84.5671 0
M  V30 18 C  27.0213 36.7305 83.6436 0
M  V30 19 O  28.0032 38.4546 84.7588 0
M  V30 20 C  28.9437 37.8689 83.9591 0
M  V30 21 C  28.4024 36.7564 83.2725 0
M  V30 22 C  29.2467 36.0016 82.4436 0
M  V30 23 C  30.5701 36.4186 82.2741 0
M  V30 24 C  31.0687 37.5596 82.9152 0
M  V30 25 C  30.2690 38.2939 83.7982 0
M  V30 26 C  32.4265 38.0008 82.6249 0
M  V30 27 C  33.5650 38.3190 82.3123 0
M  V30 28 C  34.9341 38.5885 81.8976 0
M  V30 29 C  35.3901 39.8801 81.6020 0
M  V30 30 C  36.7314 40.0551 81.2001 0
M  V30 31 C  37.5432 38.9106 81.1105 0
M  V30 32 C  37.0080 37.6592 81.4210 0
M  V30 33 N  35.7219 37.4886 81.8105 0
M  V30 34 C  37.8424 36.3958 81.3403 0
M  V30 35 C  37.3238 41.4130 80.8701 0
M  V30 36 O  38.4787 41.4988 80.4484 0
M  V30 37 N  36.5444 42.4979 81.0670 0
M  V30 38 C  36.9083 43.9150 80.8953 0
M  V30 39 C  35.6544 44.7582 81.1903 0
M  V30 40 C  37.3478 44.2283 79.4449 0
M  V30 41 C  38.0209 44.3263 81.8873 0
M  V30 42 H  19.8133 39.8989 86.8301 0
M  V30 43 H  21.1390 39.6305 85.6624 0
M  V30 44 H  19.4413 39.3686 85.1694 0
M  V30 45 H  22.9515 38.1149 86.0454 0
M  V30 46 H  21.3990 35.2521 83.2739 0
M  V30 47 H  23.5981 34.8225 82.4562 0
M  V30 48 H  25.9435 36.7567 87.0124 0
M  V30 49 H  26.6501 38.3492 87.2131 0
M  V30 50 H  24.9247 38.1288 87.4148 0
M  V30 51 H  25.0652 39.8110 84.0435 0
M  V30 52 H  24.3630 39.9157 85.6424 0
M  V30 53 H  26.0686 40.2367 85.4152 0
M  V30 54 H  28.8702 35.1397 81.9091 0
M  V30 55 H  31.2048 35.8563 81.6006 0
M  V30 56 H  30.6412 39.1671 84.3151 0
M  V30 57 H  34.7078 40.7133 81.6868 0
M  V30 58 H  38.5781 38.9876 80.8070 0
M  V30 59 H  38.8837 36.6141 81.1009 0
M  V30 60 H  37.8208 35.8639 82.2924 0
M  V30 61 H  37.4491 35.7318 80.5699 0
M  V30 62 H  35.6088 42.3407 81.4041 0
M  V30 63 H  35.8683 45.8271 81.1544 0
M  V30 64 H  35.2337 44.5424 82.1738 0
M  V30 65 H  34.8816 44.5664 80.4482 0
M  V30 66 H  38.2539 43.6938 79.1607 0
M  V30 67 H  36.5683 43.9575 78.7322 0
M  V30 68 H  37.5550 45.2903 79.3089 0
M  V30 69 H  38.9474 43.7795 81.7094 0
M  V30 70 H  38.2571 45.3878 81.8063 0
M  V30 71 H  37.7238 44.1352 82.9195 0
M  V30 END ATOM
M  V30 BEGIN BOND
M  V30 1 1 1 2
M  V30 2 1 1 42
M  V30 3 1 1 43
M  V30 4 1 1 44
M  V30 5 2 2 3
M  V30 6 2 2 4
M  V30 7 1 2 5
M  V30 8 1 5 6
M  V30 9 2 6 7
M  V30 10 1 6 8
M  V30 11 1 7 13
M  V30 12 1 7 45
M  V30 13 2 8 9
M  V30 14 1 8 46
M  V30 15 1 9 10
M  V30 16 1 9 47
M  V30 17 1 10 11
M  V30 18 2 10 13
M  V30 19 2 11 12
M  V30 20 1 11 18
M  V30 21 1 13 14
M  V30 22 1 14 15
M  V30 23 1 14 16
M  V30 24 1 14 17
M  V30 25 1 15 48
M  V30 26 1 15 49
M  V30 27 1 15 50
M  V30 28 1 16 51
M  V30 29 1 16 52
M  V30 30 1 16 53
M  V30 31 2 17 18
M  V30 32 1 17 19
M  V30 33 1 18 21
M  V30 34 1 19 20
M  V30 35 2 20 21
M  V30 36 1 20 25
M  V30 37 1 21 22
M  V30 38 2 22 23
M  V30 39 1 22 54
M  V30 40 1 23 24
M  V30 41 1 23 55
M  V30 42 2 24 25
M  V30 43 1 24 26
M  V30 44 1 25 56
M  V30 45 3 26 27
M  V30 46 1 27 28
M  V30 47 2 28 29
M  V30 48 1 28 33
M  V30 49 1 29 30
M  V30 50 1 29 57
M  V30 51 2 30 31
M  V30 52 1 30 35
M  V30 53 1 31 32
M  V30 54 1 31 58
M  V30 55 2 32 33
M  V30 56 1 32 34
M  V30 57 1 34 59
M  V30 58 1 34 60
M  V30 59 1 34 61
M  V30 60 2 35 36
M  V30 61 1 35 37
M  V30 62 1 37 38
M  V30 63 1 37 62
M  V30 64 1 38 39
M  V30 65 1 38 40
M  V30 66 1 38 41
M  V30 67 1 39 63
M  V30 68 1 39 64
M  V30 69 1 39 65
M  V30 70 1 40 66
M  V30 71 1 40 67
M  V30 72 1 40 68
M  V30 73 1 41 69
M  V30 74 1 41 70
M  V30 75 1 41 71
M  V30 END BOND
M  V30 END CTAB
M  END
> <s_m_entry_id>
1461

> <s_m_entry_name>
result.7996

> <s_m_Source_Path>
D:\OneDrive - zju.edu.cn\DOC\A-Finished\LCK_VS\Planet\LCK-8617

> <s_m_Source_File>
glide-dock_SP_top1262_2_pv.maegz

> <i_m_Source_File_Index>
1461

> <PLANET_affinity>
7.842

> <i_lp_mmshare_version>
54117

> <i_f3d_flags>
0

> <s_epik_input>
W0NIM11TKD1PKSg9TylbTkhdYyhbY0hdW2NIXTEpW2NIXWMoYzEyKUMoW0NIM10pKFtDSDNdKWMzYyhDMj1PKWM0YyhvMylbY0hdYyhbY0hdW2NIXTQpQyNDYzVbY0hdYyhbY0hdYyhuNSlbQ0gzXSlDKD1PKVtOSF1DKFtDSDNdKShbQ0gzXSlbQ0gzXQ==

> <s_epik_cmdline>
J2VwaWtfcHl0aG9uJywgJy1waCcsICc3LjAnLCAnLXRuJywgJzgnLCAnLW1hJywgJzUwMCcsICctaW1hZScsICc8aW5maWxlLm1hZT4nLCAnLW9tYWUnLCAnPG91dGZpbGUubWFlPic=

> <r_epik_Ionization_Penalty>
  0.5589

> <r_epik_Ionization_Penalty_Charging>
  0.5588

> <r_epik_Ionization_Penalty_Neutral>
  0.0000

> <r_epik_State_Penalty>
  0.5698

> <r_epik_Charging_Adjusted_Penalty>
1.12864

> <i_epik_Tot_Q>
-1

> <i_epik_Tot_abs_Q>
1

> <s_lp_Force_Field>
S-OPLS

> <r_lp_Energy>
30.8947

> <b_lp_Chiralities_Consistent>
1

> <s_lp_Variant>
O=C1C2=C(OC3=CC(C#CC4=CC(C(NC(C)(C)C)=O)=CC(C)=N4)=CC=C23)C(C)(C)C5=CC(NS(C)(...-2

> <s_i_glide_gridfile>
glide-grid_1

> <i_i_glide_lignum>
1463

> <i_i_glide_rotatable_bonds>
7

> <r_i_docking_score>
-7.26381805404884

> <r_i_glide_ligand_efficiency>
-0.177166294001191

> <r_i_glide_ligand_efficiency_sa>
-0.610907868633406

> <r_i_glide_ligand_efficiency_ln>
-1.54104317304469

> <r_i_glide_gscore>
-7.83361805404884

> <r_i_glide_lipo>
-3.57430624124379

> <r_i_glide_hbond>
-0.358777637287355

> <r_i_glide_metal>
0

> <r_i_glide_rewards>
-1.28436163653106

> <r_i_glide_evdw>
-46.9286499023438

> <r_i_glide_ecoul>
-3.35611939430237

> <r_i_glide_erotb>
0.233677865275917

> <r_i_glide_esite>
0

> <r_i_glide_emodel>
-72.9205599612635

> <r_i_glide_energy>
-50.2847692966461

> <r_i_glide_einternal>
0.468202203512192

> <i_i_glide_confnum>
3

> <i_i_glide_posenum>
345

> <r_i_glide_eff_state_penalty>
0.5698

> <s_m_subgroup_title>
glide-dock_SP_top1262_2_pv

> <s_m_subgroupid>
glide-dock_SP_top1262_2_pv

> <b_m_subgroup_collapsed>
0

$$$$
O=C(NC12CCN(C[C@H](NC3=NC4=CC=C(F)C=C4S3)CC5=CC=CC=C5)CC2)NC6=C1C=CC=C6
                    3D
 Schrodinger Suite 2021-3.
  0  0  0     0  0            999 V3000
M  V30 BEGIN CTAB
M  V30 COUNTS 65 70 0 0 0
M  V30 BEGIN ATOM
M  V30 1 C  28.5314 38.5247 85.0663 0
M  V30 2 C  29.9036 38.4177 84.8415 0
M  V30 3 C  30.3926 37.4804 83.9373 0
M  V30 4 C  29.5054 36.6438 83.2664 0
M  V30 5 C  28.1348 36.7568 83.5045 0
M  V30 6 N  27.2765 35.8919 82.8436 0
M  V30 7 C  25.9412 35.8318 82.9326 0
M  V30 8 O  25.2775 34.9261 82.4434 0
M  V30 9 N  25.3913 36.8385 83.6491 0
M  V30 10 C  27.6057 37.6982 84.4056 0
M  V30 11 C  26.0565 37.8171 84.5622 0 CFG=1
M  V30 12 C  25.5513 39.2249 84.1446 0
M  V30 13 C  25.6719 40.3646 85.1834 0
M  V30 14 N  25.0427 39.9163 86.5227 0 CHG=1 CFG=1
M  V30 15 C  25.7114 38.6169 87.0362 0
M  V30 16 C  25.4750 37.5228 85.9734 0
M  V30 17 C  25.0869 41.0684 87.5588 0
M  V30 18 C  24.1960 40.8346 88.8211 0 CFG=1
M  V30 19 C  24.5803 41.9173 89.8649 0
M  V30 20 C  24.0541 41.7034 91.2811 0
M  V30 21 C  22.7362 42.0397 91.6083 0
M  V30 22 C  22.2865 41.8961 92.9194 0
M  V30 23 C  23.1579 41.4273 93.9005 0
M  V30 24 C  24.4730 41.1022 93.5811 0
M  V30 25 C  24.9198 41.2286 92.2697 0
M  V30 26 N  22.7500 40.8820 88.5611 0
M  V30 27 C  21.8756 40.0146 87.9545 0
M  V30 28 N  20.6374 40.3462 87.7338 0
M  V30 29 S  22.3328 38.4223 87.3915 0
M  V30 30 C  20.8188 38.3410 86.5214 0
M  V30 31 C  20.0241 39.4437 86.9190 0
M  V30 32 C  20.3628 37.4095 85.5776 0
M  V30 33 C  19.0901 37.6009 85.0386 0
M  V30 34 F  18.6542 36.7742 84.0593 0
M  V30 35 C  18.2666 38.6336 85.4926 0
M  V30 36 C  18.7168 39.5557 86.4429 0
M  V30 37 H  28.2156 39.2757 85.7678 0
M  V30 38 H  30.5889 39.0660 85.3687 0
M  V30 39 H  31.4540 37.3987 83.7597 0
M  V30 40 H  29.8900 35.9088 82.5722 0
M  V30 41 H  27.6729 35.1864 82.2411 0
M  V30 42 H  24.3826 36.8442 83.6341 0
M  V30 43 H  24.4912 39.1564 83.8968 0
M  V30 44 H  26.0830 39.5324 83.2428 0
M  V30 45 H  25.1179 41.2448 84.8511 0
M  V30 46 H  26.6969 40.6738 85.3768 0
M  V30 47 H  26.7608 38.8186 87.2406 0
M  V30 48 H  25.2369 38.3566 87.9804 0
M  V30 49 H  25.6829 36.5226 86.3375 0
M  V30 50 H  24.3944 37.4596 85.8534 0
M  V30 51 H  24.7591 41.9646 87.0269 0
M  V30 52 H  26.1458 41.1793 87.8027 0
M  V30 53 H  24.4326 39.8718 89.2696 0
M  V30 54 H  25.6666 42.0012 89.9288 0
M  V30 55 H  24.2644 42.9042 89.5202 0
M  V30 56 H  22.0649 42.4271 90.8564 0
M  V30 57 H  21.2724 42.1612 93.1779 0
M  V30 58 H  22.8157 41.3182 94.9202 0
M  V30 59 H  25.1502 40.7587 94.3485 0
M  V30 60 H  25.9446 40.9804 92.0322 0
M  V30 61 H  22.3911 41.8104 88.7404 0
M  V30 62 H  20.9861 36.5901 85.2502 0
M  V30 63 H  17.2683 38.7291 85.0900 0
M  V30 64 H  18.0858 40.3566 86.8031 0
M  V30 65 H  24.0665 39.7136 86.3447 0
M  V30 END ATOM
M  V30 BEGIN BOND
M  V30 1 2 1 2
M  V30 2 1 1 10
M  V30 3 1 1 37
M  V30 4 1 2 3
M  V30 5 1 2 38
M  V30 6 2 3 4
M  V30 7 1 3 39
M  V30 8 1 4 5
M  V30 9 1 4 40
M  V30 10 1 5 6
M  V30 11 2 5 10
M  V30 12 1 6 7
M  V30 13 1 6 41
M  V30 14 2 7 8
M  V30 15 1 7 9
M  V30 16 1 9 11
M  V30 17 1 9 42
M  V30 18 1 10 11
M  V30 19 1 11 12
M  V30 20 1 11 16
M  V30 21 1 12 13
M  V30 22 1 12 43
M  V30 23 1 12 44
M  V30 24 1 13 14
M  V30 25 1 13 45
M  V30 26 1 13 46
M  V30 27 1 14 15
M  V30 28 1 14 17
M  V30 29 1 14 65
M  V30 30 1 15 16
M  V30 31 1 15 47
M  V30 32 1 15 48
M  V30 33 1 16 49
M  V30 34 1 16 50
M  V30 35 1 17 18
M  V30 36 1 17 51
M  V30 37 1 17 52
M  V30 38 1 18 19
M  V30 39 1 18 26
M  V30 40 1 18 53
M  V30 41 1 19 20
M  V30 42 1 19 54
M  V30 43 1 19 55
M  V30 44 2 20 21
M  V30 45 1 20 25
M  V30 46 1 21 22
M  V30 47 1 21 56
M  V30 48 2 22 23
M  V30 49 1 22 57
M  V30 50 1 23 24
M  V30 51 1 23 58
M  V30 52 2 24 25
M  V30 53 1 24 59
M  V30 54 1 25 60
M  V30 55 1 26 27
M  V30 56 1 26 61
M  V30 57 2 27 28
M  V30 58 1 27 29
M  V30 59 1 28 31
M  V30 60 1 29 30
M  V30 61 2 30 31
M  V30 62 1 30 32
M  V30 63 1 31 36
M  V30 64 2 32 33
M  V30 65 1 32 62
M  V30 66 1 33 34
M  V30 67 1 33 35
M  V30 68 2 35 36
M  V30 69 1 35 63
M  V30 70 1 36 64
M  V30 END BOND
M  V30 END CTAB
M  END
> <s_m_entry_id>
1462

> <s_m_entry_name>
result.2331

> <s_m_Source_Path>
D:\OneDrive - zju.edu.cn\DOC\A-Finished\LCK_VS\Planet\LCK-8617

> <s_m_Source_File>
glide-dock_SP_top1262_2_pv.maegz

> <i_m_Source_File_Index>
1462

> <PLANET_affinity>
8.493

> <i_lp_mmshare_version>
54117

> <i_f3d_flags>
0

> <s_epik_input>
W2NIXTFbY0hdW2NIXVtjSF1jKFtOSF1DKD1PKVtOSF0yKWMxQzIzW0NIMl1bQ0gyXU4oW0NIMl1bQ0gyXTMpW0NIMl1bQ0BASF0oW0NIMl1jNFtjSF1bY0hdW2NIXVtjSF1bY0hdNClbTkhdYyhzNSluYyhjNTYpW2NIXVtjSF1jKEYpW2NIXTY=

> <s_epik_cmdline>
J2VwaWtfcHl0aG9uJywgJy1waCcsICc3LjAnLCAnLXRuJywgJzgnLCAnLW1hJywgJzUwMCcsICctaW1hZScsICc8aW5maWxlLm1hZT4nLCAnLW9tYWUnLCAnPG91dGZpbGUubWFlPic=

> <r_epik_Ionization_Penalty>
  0.0152

> <r_epik_Ionization_Penalty_Charging>
  0.0151

> <r_epik_Ionization_Penalty_Neutral>
  0.0001

> <r_epik_State_Penalty>
  0.0119

> <r_epik_Charging_Adjusted_Penalty>
0.0270184

> <i_epik_Tot_Q>
1

> <i_epik_Tot_abs_Q>
1

> <s_lp_Force_Field>
S-OPLS

> <r_lp_Energy>
54.4446

> <b_lp_Chiralities_Consistent>
1

> <s_lp_Variant>
O=C(NC12CCN(C[C@H](NC3=NC4=CC=C(F)C=C4S3)CC5=CC=CC=C5)CC2)NC6=C1C=CC=C6-1

> <s_i_glide_gridfile>
glide-grid_1

> <i_i_glide_lignum>
804

> <i_i_glide_rotatable_bonds>
6

> <r_i_docking_score>
-7.26328621087527

> <r_i_glide_ligand_efficiency>
-0.201757950302091

> <r_i_glide_ligand_efficiency_sa>
-0.666190072987834

> <r_i_glide_ligand_efficiency_ln>
-1.58465281989689

> <r_i_glide_gscore>
-7.27518621087527

> <r_i_glide_lipo>
-2.95872338371302

> <r_i_glide_hbond>
-0.32

> <r_i_glide_metal>
0

> <r_i_glide_rewards>
-0.95

> <r_i_glide_evdw>
-44.2648162841797

> <r_i_glide_ecoul>
-7.08748197555542

> <r_i_glide_erotb>
0.242656919918666

> <r_i_glide_esite>
-0.0127566365386146

> <r_i_glide_emodel>
-74.404867268357

> <r_i_glide_energy>
-51.3522982597351

> <r_i_glide_einternal>
1.36632788181305

> <i_i_glide_confnum>
1

> <i_i_glide_posenum>
242

> <r_i_glide_eff_state_penalty>
0.0119

> <s_m_subgroup_title>
glide-dock_SP_top1262_2_pv

> <s_m_subgroupid>
glide-dock_SP_top1262_2_pv

> <b_m_subgroup_collapsed>
0

$$$$
COC1=CC(C(N2CCC(N3CCN(C)CC3)CC2)=O)=CC=C1NC4=NC=C(N(C)C5=O)C(N(C6=CC=CC=C65)C...
                    3D
 Schrodinger Suite 2021-3.
  0  0  0     0  0            999 V3000
M  V30 BEGIN CTAB
M  V30 COUNTS 90 95 0 0 0
M  V30 BEGIN ATOM
M  V30 1 C  31.7067 39.3227 82.6245 0
M  V30 2 C  32.1310 40.0929 81.3501 0
M  V30 3 N  33.4194 39.6041 80.8504 0 CFG=2
M  V30 4 C  33.8112 40.3862 79.6783 0
M  V30 5 C  33.2886 38.1888 80.4875 0
M  V30 6 C  32.9367 37.3411 81.7323 0
M  V30 7 N  31.5627 37.8082 82.2903 0 CHG=1
M  V30 8 C  31.0795 36.9021 83.4720 0
M  V30 9 C  29.8862 37.5607 84.2279 0
M  V30 10 C  28.6391 37.7275 83.3279 0
M  V30 11 C  30.5596 35.5721 82.8553 0
M  V30 12 C  29.2697 35.7212 82.0160 0
M  V30 13 N  28.2477 36.3848 82.8631 0
M  V30 14 C  27.0182 35.8050 83.0235 0
M  V30 15 O  26.7371 34.7568 82.4436 0
M  V30 16 C  25.9259 36.3977 83.9019 0
M  V30 17 C  24.5947 36.0708 83.6136 0
M  V30 18 C  23.5136 36.5935 84.3392 0
M  V30 19 O  22.1948 36.2934 84.0209 0
M  V30 20 C  21.9461 35.3371 82.9914 0
M  V30 21 C  26.1608 37.1892 85.0318 0
M  V30 22 C  25.1053 37.7458 85.7463 0
M  V30 23 C  23.7748 37.4901 85.3882 0
M  V30 24 N  22.6785 38.1242 86.0028 0
M  V30 25 C  22.5391 39.1692 86.9261 0
M  V30 26 N  21.3066 39.7169 86.9704 0
M  V30 27 C  21.1462 40.7718 87.8013 0
M  V30 28 N  23.5929 39.5975 87.6606 0
M  V30 29 C  23.4012 40.6367 88.5276 0
M  V30 30 C  22.1351 41.2438 88.6847 0
M  V30 31 N  24.5410 41.0304 89.2554 0
M  V30 32 C  25.7941 41.2040 88.4669 0 CFG=2
M  V30 33 C  26.7127 39.9597 88.4595 0
M  V30 34 C  26.5539 42.5218 88.7692 0
M  V30 35 C  25.7144 43.7971 88.5693 0
M  V30 36 C  24.5218 41.2265 90.6546 0
M  V30 37 C  23.4230 41.7986 91.3539 0
M  V30 38 C  22.2726 42.5904 90.7297 0
M  V30 39 O  21.6460 43.3757 91.4561 0
M  V30 40 N  22.0081 42.4553 89.3969 0
M  V30 41 C  21.0661 43.4569 88.8553 0
M  V30 42 C  23.4255 41.7934 92.7647 0
M  V30 43 C  24.4886 41.2713 93.4876 0
M  V30 44 C  25.5900 40.7692 92.8190 0
M  V30 45 C  25.6020 40.7563 91.4297 0
M  V30 46 H  30.7429 39.7062 82.9526 0
M  V30 47 H  32.4275 39.4230 83.4389 0
M  V30 48 H  31.3594 40.0219 80.5801 0
M  V30 49 H  32.2186 41.1536 81.5954 0
M  V30 50 H  34.7692 40.0421 79.2872 0
M  V30 51 H  33.0727 40.3189 78.8751 0
M  V30 52 H  33.9308 41.4402 79.9390 0
M  V30 53 H  34.2317 37.8324 80.0721 0
M  V30 54 H  32.5366 38.0439 79.7108 0
M  V30 55 H  33.6735 37.4521 82.5302 0
M  V30 56 H  32.8702 36.2887 81.4606 0
M  V30 57 H  31.9280 36.7437 84.1405 0
M  V30 58 H  30.1578 38.5314 84.6391 0
M  V30 59 H  29.6069 36.9440 85.0830 0
M  V30 60 H  28.9249 38.2851 82.4437 0
M  V30 61 H  27.8467 38.3492 83.7334 0
M  V30 62 H  30.3416 34.8588 83.6435 0
M  V30 63 H  31.3012 35.0931 82.2192 0
M  V30 64 H  28.9624 34.7410 81.6441 0
M  V30 65 H  29.4590 36.3499 81.1478 0
M  V30 66 H  24.4047 35.4172 82.7768 0
M  V30 67 H  20.8841 35.1566 82.8437 0
M  V30 68 H  22.3344 35.6750 82.0301 0
M  V30 69 H  22.3954 34.3710 83.2436 0
M  V30 70 H  27.1584 37.3839 85.3938 0
M  V30 71 H  25.3566 38.3829 86.5740 0
M  V30 72 H  21.8036 37.8844 85.5599 0
M  V30 73 H  20.1737 41.2400 87.7416 0
M  V30 74 H  25.4915 41.3267 87.4228 0
M  V30 75 H  27.2205 39.8688 87.5007 0
M  V30 76 H  27.4955 40.0179 89.2127 0
M  V30 77 H  26.1603 39.0357 88.6246 0
M  V30 78 H  26.9500 42.5110 89.7860 0
M  V30 79 H  27.4263 42.5818 88.1181 0
M  V30 80 H  26.3169 44.6910 88.7352 0
M  V30 81 H  25.3177 43.8522 87.5546 0
M  V30 82 H  24.8714 43.8394 89.2615 0
M  V30 83 H  21.2281 44.4548 89.2682 0
M  V30 84 H  21.2047 43.5535 87.7765 0
M  V30 85 H  20.0278 43.1801 89.0439 0
M  V30 86 H  22.6085 42.2160 93.3349 0
M  V30 87 H  24.4680 41.2774 94.5669 0
M  V30 88 H  26.4283 40.3736 93.3762 0
M  V30 89 H  26.4691 40.3109 90.9797 0
M  V30 90 H  30.8899 37.7191 81.5428 0
M  V30 END ATOM
M  V30 BEGIN BOND
M  V30 1 1 1 2
M  V30 2 1 1 7
M  V30 3 1 1 46
M  V30 4 1 1 47
M  V30 5 1 2 3
M  V30 6 1 2 48
M  V30 7 1 2 49
M  V30 8 1 3 4
M  V30 9 1 3 5
M  V30 10 1 4 50
M  V30 11 1 4 51
M  V30 12 1 4 52
M  V30 13 1 5 6
M  V30 14 1 5 53
M  V30 15 1 5 54
M  V30 16 1 6 7
M  V30 17 1 6 55
M  V30 18 1 6 56
M  V30 19 1 7 8
M  V30 20 1 7 90
M  V30 21 1 8 9
M  V30 22 1 8 11
M  V30 23 1 8 57
M  V30 24 1 9 10
M  V30 25 1 9 58
M  V30 26 1 9 59
M  V30 27 1 10 13
M  V30 28 1 10 60
M  V30 29 1 10 61
M  V30 30 1 11 12
M  V30 31 1 11 62
M  V30 32 1 11 63
M  V30 33 1 12 13
M  V30 34 1 12 64
M  V30 35 1 12 65
M  V30 36 1 13 14
M  V30 37 2 14 15
M  V30 38 1 14 16
M  V30 39 2 16 17
M  V30 40 1 16 21
M  V30 41 1 17 18
M  V30 42 1 17 66
M  V30 43 1 18 19
M  V30 44 2 18 23
M  V30 45 1 19 20
M  V30 46 1 20 67
M  V30 47 1 20 68
M  V30 48 1 20 69
M  V30 49 2 21 22
M  V30 50 1 21 70
M  V30 51 1 22 23
M  V30 52 1 22 71
M  V30 53 1 23 24
M  V30 54 1 24 25
M  V30 55 1 24 72
M  V30 56 2 25 26
M  V30 57 1 25 28
M  V30 58 1 26 27
M  V30 59 2 27 30
M  V30 60 1 27 73
M  V30 61 2 28 29
M  V30 62 1 29 30
M  V30 63 1 29 31
M  V30 64 1 30 40
M  V30 65 1 31 32
M  V30 66 1 31 36
M  V30 67 1 32 33
M  V30 68 1 32 34
M  V30 69 1 32 74
M  V30 70 1 33 75
M  V30 71 1 33 76
M  V30 72 1 33 77
M  V30 73 1 34 35
M  V30 74 1 34 78
M  V30 75 1 34 79
M  V30 76 1 35 80
M  V30 77 1 35 81
M  V30 78 1 35 82
M  V30 79 2 36 37
M  V30 80 1 36 45
M  V30 81 1 37 38
M  V30 82 1 37 42
M  V30 83 2 38 39
M  V30 84 1 38 40
M  V30 85 1 40 41
M  V30 86 1 41 83
M  V30 87 1 41 84
M  V30 88 1 41 85
M  V30 89 2 42 43
M  V30 90 1 42 86
M  V30 91 1 43 44
M  V30 92 1 43 87
M  V30 93 2 44 45
M  V30 94 1 44 88
M  V30 95 1 45 89
M  V30 END BOND
M  V30 END CTAB
M  END
> <s_m_entry_id>
1466

> <s_m_entry_name>
result.3996

> <s_m_Source_Path>
D:\OneDrive - zju.edu.cn\DOC\A-Finished\LCK_VS\Planet\LCK-8617

> <s_m_Source_File>
glide-dock_SP_top1262_2_pv.maegz

> <i_m_Source_File_Index>
1466

> <PLANET_affinity>
9.976

> <i_lp_mmshare_version>
54117

> <i_f3d_flags>
0

> <s_epik_input>
W0NIM11OMVtDSDJdW0NIMl1OKFtDSDJdW0NIMl0xKVtDSF0yW0NIMl1bQ0gyXU4oW0NIMl1bQ0gyXTIpQyg9TyljM1tjSF1jKE9bQ0gzXSljKFtjSF1bY0hdMylbTkhdYyhuNCluW2NIXWMoYzQ1KU4oW0NIM10pQyg9TyljNmMoTjVbQ0BIXShbQ0gzXSlbQ0gyXVtDSDNdKVtjSF1bY0hdW2NIXVtjSF02

> <s_epik_cmdline>
J2VwaWtfcHl0aG9uJywgJy1waCcsICc3LjAnLCAnLXRuJywgJzgnLCAnLW1hJywgJzUwMCcsICctaW1hZScsICc8aW5maWxlLm1hZT4nLCAnLW9tYWUnLCAnPG91dGZpbGUubWFlPic=

> <r_epik_Ionization_Penalty>
  0.0049

> <r_epik_Ionization_Penalty_Charging>
  0.0022

> <r_epik_Ionization_Penalty_Neutral>
  0.0026

> <r_epik_State_Penalty>
  0.0393

> <r_epik_Charging_Adjusted_Penalty>
0.0415301

> <i_epik_Tot_Q>
1

> <i_epik_Tot_abs_Q>
1

> <s_lp_Force_Field>
S-OPLS

> <r_lp_Energy>
125.177

> <b_lp_Chiralities_Consistent>
1

> <s_lp_Variant>
COC1=CC(C(N2CCC(N3CCN(C)CC3)CC2)=O)=CC=C1NC4=NC=C(N(C)C5=O)C(N(C6=CC=CC=C65)C...-1

> <s_i_glide_gridfile>
glide-grid_1

> <i_i_glide_lignum>
263

> <i_i_glide_rotatable_bonds>
8

> <r_i_docking_score>
-7.26226151161515

> <r_i_glide_ligand_efficiency>
-0.161383589147003

> <r_i_glide_ligand_efficiency_sa>
-0.574024206963179

> <r_i_glide_ligand_efficiency_ln>
-1.5108740268473

> <r_i_glide_gscore>
-7.30156151161515

> <r_i_glide_lipo>
-3.54120275562871

> <r_i_glide_hbond>
-0.120561637130725

> <r_i_glide_metal>
0

> <r_i_glide_rewards>
-0.484909686745624

> <r_i_glide_evdw>
-50.1661415100098

> <r_i_glide_ecoul>
-5.37793779373169

> <r_i_glide_erotb>
0.208291331559214

> <r_i_glide_esite>
-0.0481810191090696

> <r_i_glide_emodel>
-74.885674838443

> <r_i_glide_energy>
-55.5440793037415

> <r_i_glide_einternal>
13.144889831543

> <i_i_glide_confnum>
18

> <i_i_glide_posenum>
57

> <r_i_glide_eff_state_penalty>
0.0393

> <r_lp_tautomer_probability>
1

> <s_m_subgroup_title>
glide-dock_SP_top1262_2_pv

> <s_m_subgroupid>
glide-dock_SP_top1262_2_pv

> <b_m_subgroup_collapsed>
0

$$$$
CN1CCN(C2=CC(NC3=NNC(C4CC4)=C3)=NC(NCC5=CC(C(C)C)=NO5)=N2)CC1
                    3D
 Schrodinger Suite 2021-3.
  0  0  0     0  0            999 V3000
M  V30 BEGIN CTAB
M  V30 COUNTS 64 68 0 0 0
M  V30 BEGIN ATOM
M  V30 1 C  21.0644 36.5700 84.2900 0
M  V30 2 C  21.5683 35.9572 85.5880 0
M  V30 3 C  22.4594 36.8691 84.7828 0
M  V30 4 C  23.6827 36.3558 84.0441 0
M  V30 5 C  25.0146 36.7210 84.1013 0
M  V30 6 N  23.6762 35.3876 83.0723 0
M  V30 7 N  24.8769 35.1567 82.5268 0
M  V30 8 C  25.7057 35.9721 83.1368 0
M  V30 9 N  27.0302 35.9849 82.7675 0
M  V30 10 C  28.1021 36.7297 83.2888 0
M  V30 11 C  29.3710 36.5171 82.7432 0
M  V30 12 C  30.4513 37.2353 83.2800 0
M  V30 13 N  31.7566 37.1261 82.7914 0
M  V30 14 C  32.9207 37.1920 83.7015 0
M  V30 15 C  33.2996 35.8024 84.2747 0
M  V30 16 C  32.1274 36.2481 81.6682 0
M  V30 17 C  32.4318 34.8034 82.1311 0
M  V30 18 N  33.6316 34.8456 83.1066 0 CHG=1
M  V30 19 C  33.9613 33.4338 83.6478 0
M  V30 20 N  27.9108 37.6144 84.3037 0
M  V30 21 C  28.9987 38.2910 84.7583 0
M  V30 22 N  30.2551 38.1296 84.2865 0
M  V30 23 N  28.8803 39.2132 85.8090 0
M  V30 24 C  27.6991 39.2832 86.6702 0
M  V30 25 C  26.4737 39.9052 86.0347 0
M  V30 26 C  26.2436 40.9311 85.1422 0
M  V30 27 C  24.8552 41.0438 85.0452 0
M  V30 28 N  24.2614 40.1521 85.8172 0
M  V30 29 O  25.2728 39.4432 86.4654 0
M  V30 30 C  24.0470 42.0501 84.2322 0
M  V30 31 C  23.8702 43.3595 85.0191 0
M  V30 32 C  22.6829 41.5026 83.7610 0
M  V30 33 H  20.3222 37.3685 84.3304 0
M  V30 34 H  20.9442 35.9439 83.4063 0
M  V30 35 H  21.7873 34.8926 85.6383 0
M  V30 36 H  21.1853 36.3325 86.5386 0
M  V30 37 H  22.6084 37.8623 85.2084 0
M  V30 38 H  25.4263 37.4725 84.7544 0
M  V30 39 H  22.8543 34.8827 82.7711 0
M  V30 40 H  27.3019 35.4408 81.9597 0
M  V30 41 H  29.5041 35.8090 81.9420 0
M  V30 42 H  32.7370 37.8850 84.5252 0
M  V30 43 H  33.7710 37.6172 83.1621 0
M  V30 44 H  34.1894 35.8504 84.9076 0
M  V30 45 H  32.4841 35.3515 84.8422 0
M  V30 46 H  33.0045 36.6597 81.1651 0
M  V30 47 H  31.3511 36.2717 80.9025 0
M  V30 48 H  32.7087 34.1586 81.2922 0
M  V30 49 H  31.5880 34.3576 82.6632 0
M  V30 50 H  33.0902 33.0541 84.1888 0
M  V30 51 H  34.1994 32.8000 82.7916 0
M  V30 52 H  34.8251 33.5245 84.3076 0
M  V30 53 H  29.7514 39.5539 86.1898 0
M  V30 54 H  27.4760 38.2924 87.0587 0
M  V30 55 H  27.9634 39.8885 87.5391 0
M  V30 56 H  26.9839 41.5386 84.6414 0
M  V30 57 H  24.6103 42.2990 83.3305 0
M  V30 58 H  24.8330 43.8274 85.2412 0
M  V30 59 H  23.2834 44.0845 84.4537 0
M  V30 60 H  23.3520 43.1902 85.9657 0
M  V30 61 H  22.8075 40.5525 83.2434 0
M  V30 62 H  22.0029 41.3349 84.5981 0
M  V30 63 H  22.1916 42.1941 83.0752 0
M  V30 64 H  34.4311 35.2185 82.6087 0
M  V30 END ATOM
M  V30 BEGIN BOND
M  V30 1 1 1 2
M  V30 2 1 1 3
M  V30 3 1 1 33
M  V30 4 1 1 34
M  V30 5 1 2 3
M  V30 6 1 2 35
M  V30 7 1 2 36
M  V30 8 1 3 4
M  V30 9 1 3 37
M  V30 10 2 4 5
M  V30 11 1 4 6
M  V30 12 1 5 8
M  V30 13 1 5 38
M  V30 14 1 6 7
M  V30 15 1 6 39
M  V30 16 2 7 8
M  V30 17 1 8 9
M  V30 18 1 9 10
M  V30 19 1 9 40
M  V30 20 2 10 11
M  V30 21 1 10 20
M  V30 22 1 11 12
M  V30 23 1 11 41
M  V30 24 1 12 13
M  V30 25 2 12 22
M  V30 26 1 13 14
M  V30 27 1 13 16
M  V30 28 1 14 15
M  V30 29 1 14 42
M  V30 30 1 14 43
M  V30 31 1 15 18
M  V30 32 1 15 44
M  V30 33 1 15 45
M  V30 34 1 16 17
M  V30 35 1 16 46
M  V30 36 1 16 47
M  V30 37 1 17 18
M  V30 38 1 17 48
M  V30 39 1 17 49
M  V30 40 1 18 19
M  V30 41 1 18 64
M  V30 42 1 19 50
M  V30 43 1 19 51
M  V30 44 1 19 52
M  V30 45 2 20 21
M  V30 46 1 21 22
M  V30 47 1 21 23
M  V30 48 1 23 24
M  V30 49 1 23 53
M  V30 50 1 24 25
M  V30 51 1 24 54
M  V30 52 1 24 55
M  V30 53 2 25 26
M  V30 54 1 25 29
M  V30 55 1 26 27
M  V30 56 1 26 56
M  V30 57 2 27 28
M  V30 58 1 27 30
M  V30 59 1 28 29
M  V30 60 1 30 31
M  V30 61 1 30 32
M  V30 62 1 30 57
M  V30 63 1 31 58
M  V30 64 1 31 59
M  V30 65 1 31 60
M  V30 66 1 32 61
M  V30 67 1 32 62
M  V30 68 1 32 63
M  V30 END BOND
M  V30 END CTAB
M  END
> <s_m_entry_id>
1471

> <s_m_entry_name>
result.2649

> <s_m_Source_Path>
D:\OneDrive - zju.edu.cn\DOC\A-Finished\LCK_VS\Planet\LCK-8617

> <s_m_Source_File>
glide-dock_SP_top1262_2_pv.maegz

> <i_m_Source_File_Index>
1471

> <PLANET_affinity>
8.243

> <i_lp_mmshare_version>
54117

> <i_f3d_flags>
0

> <s_epik_input>
W0NIMl0xW0NIMl1bQ0hdMWMyW2NIXWMobltuSF0yKVtOSF1jM1tjSF1jKE40W0NIMl1bQ0gyXU4oW0NIM10pW0NIMl1bQ0gyXTQpbmMobjMpW05IXVtDSDJdYzVbY0hdYyhubzUpW0NIXShbQ0gzXSlbQ0gzXQ==

> <s_epik_cmdline>
J2VwaWtfcHl0aG9uJywgJy1waCcsICc3LjAnLCAnLXRuJywgJzgnLCAnLW1hJywgJzUwMCcsICctaW1hZScsICc8aW5maWxlLm1hZT4nLCAnLW9tYWUnLCAnPG91dGZpbGUubWFlPic=

> <r_epik_Ionization_Penalty>
  1.2384

> <r_epik_Ionization_Penalty_Charging>
  0.1866

> <r_epik_Ionization_Penalty_Neutral>
  1.0518

> <r_epik_State_Penalty>
  0.7772

> <r_epik_Charging_Adjusted_Penalty>
0.963834

> <i_epik_Tot_Q>
1

> <i_epik_Tot_abs_Q>
1

> <s_lp_Force_Field>
S-OPLS

> <r_lp_Energy>
47.0959

> <b_lp_Chiralities_Consistent>
1

> <s_lp_Variant>
CN1CCN(C2=CC(NC3=NNC(C4CC4)=C3)=NC(NCC5=CC(C(C)C)=NO5)=N2)CC1-2

> <s_i_glide_gridfile>
glide-grid_1

> <i_i_glide_lignum>
1033

> <i_i_glide_rotatable_bonds>
8

> <r_i_docking_score>
-7.26011668295669

> <r_i_glide_ligand_efficiency>
-0.226878646342397

> <r_i_glide_ligand_efficiency_sa>
-0.720294802913966

> <r_i_glide_ligand_efficiency_ln>
-1.62573802862034

> <r_i_glide_gscore>
-8.03731668295669

> <r_i_glide_lipo>
-2.09507457109605

> <r_i_glide_hbond>
-0.426377904258431

> <r_i_glide_metal>
0

> <r_i_glide_rewards>
-2.44757496216357

> <r_i_glide_evdw>
-40.8516502380371

> <r_i_glide_ecoul>
-10.2133007049561

> <r_i_glide_erotb>
0.508298106785592

> <r_i_glide_esite>
-0.00200973457896645

> <r_i_glide_emodel>
-78.0089617784896

> <r_i_glide_energy>
-51.0649509429932

> <r_i_glide_einternal>
4.72254753112793

> <i_i_glide_confnum>
206

> <i_i_glide_posenum>
176

> <r_i_glide_eff_state_penalty>
0.7772

> <s_m_subgroup_title>
glide-dock_SP_top1262_2_pv

> <s_m_subgroupid>
glide-dock_SP_top1262_2_pv

> <b_m_subgroup_collapsed>
0

$$$$
O=C(C1=C2C=CC=CC2=C(C3=NOC(C(F)(F)F)(C4=CC(C(F)(F)F)=CC(Cl)=C4)C3)C=C1)NCC(NC...
                    3D
 Schrodinger Suite 2021-3.
  0  0  0     0  0            999 V3000
M  V30 BEGIN CTAB
M  V30 COUNTS 59 62 0 0 0
M  V30 BEGIN ATOM
M  V30 1 F  16.4851 39.1566 85.3931 0
M  V30 2 C  17.4544 38.3131 85.7297 0
M  V30 3 F  16.8864 37.1565 86.0435 0
M  V30 4 F  18.1925 38.1184 84.6353 0
M  V30 5 C  18.3116 38.7849 86.9222 0
M  V30 6 N  19.4359 37.8792 87.1832 0
M  V30 7 C  19.3022 36.6440 87.7050 0
M  V30 8 O  18.2743 36.2982 88.2787 0
M  V30 9 C  20.4293 35.6035 87.5300 0
M  V30 10 N  21.6839 36.1641 87.0247 0
M  V30 11 C  21.8742 36.5683 85.7603 0
M  V30 12 O  21.0063 36.5014 84.8870 0
M  V30 13 C  23.2373 37.1323 85.4605 0
M  V30 14 C  23.7444 38.1683 86.2480 0
M  V30 15 C  24.9661 38.7582 85.9621 0
M  V30 16 C  25.7322 38.3482 84.8704 0
M  V30 17 C  25.2725 37.2611 84.0584 0
M  V30 18 C  24.0082 36.6449 84.3581 0
M  V30 19 C  26.0218 36.7623 82.9522 0
M  V30 20 C  25.5278 35.7343 82.1666 0
M  V30 21 C  24.3038 35.1565 82.4435 0
M  V30 22 C  23.5608 35.5732 83.5265 0
M  V30 23 C  26.9859 39.0681 84.6247 0
M  V30 24 C  28.1105 38.9931 85.5944 0
M  V30 25 N  27.2861 39.7435 83.6000 0
M  V30 26 O  28.6012 40.2547 83.7131 0
M  V30 27 C  29.1927 39.8768 84.9622 0 CFG=1
M  V30 28 C  29.3779 41.2263 85.7363 0
M  V30 29 F  28.2768 41.9805 85.6915 0
M  V30 30 F  29.6291 41.0335 87.0325 0
M  V30 31 F  30.3767 41.9552 85.2449 0
M  V30 32 C  30.4900 39.0701 84.7396 0
M  V30 33 C  31.5657 39.1099 85.6397 0
M  V30 34 C  32.7017 38.3119 85.4467 0
M  V30 35 C  33.8657 38.3640 86.4363 0
M  V30 36 F  33.9462 39.5526 87.0353 0
M  V30 37 F  33.6850 37.4321 87.3700 0
M  V30 38 F  35.0285 38.1310 85.8264 0
M  V30 39 C  32.7575 37.4625 84.3352 0
M  V30 40 C  31.6965 37.4119 83.4337 0
M  V30 41 Cl 31.7653 36.3584 82.0686 0
M  V30 42 C  30.5727 38.2087 83.6382 0
M  V30 43 H  18.6898 39.7886 86.7257 0
M  V30 44 H  17.6837 38.8689 87.8114 0
M  V30 45 H  20.3051 38.1010 86.7194 0
M  V30 46 H  20.6031 35.0486 88.4433 0
M  V30 47 H  20.0832 34.8537 86.8201 0
M  V30 48 H  22.4556 36.2187 87.6710 0
M  V30 49 H  23.1767 38.5531 87.0841 0
M  V30 50 H  25.2976 39.5735 86.5913 0
M  V30 51 H  26.9790 37.1914 82.6976 0
M  V30 52 H  26.0830 35.3975 81.3102 0
M  V30 53 H  23.9074 34.3722 81.8162 0
M  V30 54 H  22.6197 35.0750 83.7044 0
M  V30 55 H  27.8138 39.3250 86.5899 0
M  V30 56 H  28.4286 37.9529 85.6444 0
M  V30 57 H  31.5290 39.7528 86.5068 0
M  V30 58 H  33.6217 36.8336 84.1706 0
M  V30 59 H  29.7526 38.1414 82.9390 0
M  V30 END ATOM
M  V30 BEGIN BOND
M  V30 1 1 1 2
M  V30 2 1 2 3
M  V30 3 1 2 4
M  V30 4 1 2 5
M  V30 5 1 5 6
M  V30 6 1 5 43
M  V30 7 1 5 44
M  V30 8 1 6 7
M  V30 9 1 6 45
M  V30 10 2 7 8
M  V30 11 1 7 9
M  V30 12 1 9 10
M  V30 13 1 9 46
M  V30 14 1 9 47
M  V30 15 1 10 11
M  V30 16 1 10 48
M  V30 17 2 11 12
M  V30 18 1 11 13
M  V30 19 2 13 14
M  V30 20 1 13 18
M  V30 21 1 14 15
M  V30 22 1 14 49
M  V30 23 2 15 16
M  V30 24 1 15 50
M  V30 25 1 16 17
M  V30 26 1 16 23
M  V30 27 2 17 18
M  V30 28 1 17 19
M  V30 29 1 18 22
M  V30 30 2 19 20
M  V30 31 1 19 51
M  V30 32 1 20 21
M  V30 33 1 20 52
M  V30 34 2 21 22
M  V30 35 1 21 53
M  V30 36 1 22 54
M  V30 37 1 23 24
M  V30 38 2 23 25
M  V30 39 1 24 27
M  V30 40 1 24 55
M  V30 41 1 24 56
M  V30 42 1 25 26
M  V30 43 1 26 27
M  V30 44 1 27 28
M  V30 45 1 27 32
M  V30 46 1 28 29
M  V30 47 1 28 30
M  V30 48 1 28 31
M  V30 49 2 32 33
M  V30 50 1 32 42
M  V30 51 1 33 34
M  V30 52 1 33 57
M  V30 53 1 34 35
M  V30 54 2 34 39
M  V30 55 1 35 36
M  V30 56 1 35 37
M  V30 57 1 35 38
M  V30 58 1 39 40
M  V30 59 1 39 58
M  V30 60 1 40 41
M  V30 61 2 40 42
M  V30 62 1 42 59
M  V30 END BOND
M  V30 END CTAB
M  END
> <s_m_entry_id>
1477

> <s_m_entry_name>
result.1104

> <s_m_Source_Path>
D:\OneDrive - zju.edu.cn\DOC\A-Finished\LCK_VS\Planet\LCK-8617

> <s_m_Source_File>
glide-dock_SP_top1262_2_pv.maegz

> <i_m_Source_File_Index>
1477

> <PLANET_affinity>
7.655

> <i_lp_mmshare_version>
54117

> <i_f3d_flags>
0

> <s_epik_input>
RkMoRikoRilbQ0gyXVtOSF1DKD1PKVtDSDJdW05IXUMoPU8pYyhjKGMxMilbY0hdW2NIXVtjSF1bY0hdMilbY0hdW2NIXWMxQyg9Tk8zKVtDSDJdW0NAQF0zKEMoRikoRilGKWM0W2NIXWMoQyhGKShGKUYpW2NIXWMoQ2wpW2NIXTQ=

> <s_epik_cmdline>
J2VwaWtfcHl0aG9uJywgJy1waCcsICc3LjAnLCAnLXRuJywgJzgnLCAnLW1hJywgJzUwMCcsICctaW1hZScsICc8aW5maWxlLm1hZT4nLCAnLW9tYWUnLCAnPG91dGZpbGUubWFlPic=

> <r_epik_Ionization_Penalty>
  0.0000

> <r_epik_Ionization_Penalty_Charging>
  0.0000

> <r_epik_Ionization_Penalty_Neutral>
  0.0000

> <r_epik_State_Penalty>
  0.0000

> <r_epik_Charging_Adjusted_Penalty>
0

> <i_epik_Tot_Q>
0

> <i_epik_Tot_abs_Q>
0

> <s_epik_Chemistry_Notes>
This compound has an imine and may undergo hydrolysis.

> <s_lp_Force_Field>
S-OPLS

> <r_lp_Energy>
32.8432

> <b_lp_Chiralities_Consistent>
1

> <s_lp_Variant>
O=C(C1=C2C=CC=CC2=C(C3=NOC(C(F)(F)F)(C4=CC(C(F)(F)F)=CC(Cl)=C4)C3)C=C1)NCC(NC...-1

> <s_i_glide_gridfile>
glide-grid_1

> <i_i_glide_lignum>
1718

> <i_i_glide_rotatable_bonds>
11

> <r_i_docking_score>
-7.25774904337015

> <r_i_glide_ligand_efficiency>
-0.17280354865167

> <r_i_glide_ligand_efficiency_sa>
-0.600669738695769

> <r_i_glide_ligand_efficiency_ln>
-1.53192384191617

> <r_i_glide_gscore>
-7.25774904337015

> <r_i_glide_lipo>
-3.02967376094741

> <r_i_glide_hbond>
-0.252171208145118

> <r_i_glide_metal>
0

> <r_i_glide_rewards>
-1.42971884666366

> <r_i_glide_evdw>
-46.1221351623535

> <r_i_glide_ecoul>
-2.79003262519836

> <r_i_glide_erotb>
0.295672013533975

> <r_i_glide_esite>
-0.117245589250501

> <r_i_glide_emodel>
-69.6880103930466

> <r_i_glide_energy>
-48.9121677875519

> <r_i_glide_einternal>
5.86527299880981

> <i_i_glide_confnum>
237

> <i_i_glide_posenum>
15

> <r_i_glide_eff_state_penalty>
0

> <r_lp_tautomer_probability>
1

> <s_m_subgroup_title>
glide-dock_SP_top1262_2_pv

> <s_m_subgroupid>
glide-dock_SP_top1262_2_pv

> <b_m_subgroup_collapsed>
0

$$$$
C=C[C@H]([C@@]1([H])C(C(OCC1)=O)=CO2)[C@@H]2O[C@@](O[C@H](CO)[C@@H](O)[C@@H]3...
                    3D
 Schrodinger Suite 2021-3.
  0  0  0     0  0            999 V3000
M  V30 BEGIN CTAB
M  V30 COUNTS 72 76 0 0 0
M  V30 BEGIN ATOM
M  V30 1 C  21.1892 36.3153 87.0209 0
M  V30 2 C  19.7339 36.8054 86.9084 0
M  V30 3 O  19.5542 38.0771 87.5389 0
M  V30 4 C  20.3845 39.1167 87.2083 0
M  V30 5 O  20.0553 40.2242 87.6300 0
M  V30 6 C  21.5828 38.7774 86.4270 0
M  V30 7 C  22.2260 37.4073 86.6338 0 CFG=2
M  V30 8 C  22.1182 39.6560 85.5573 0
M  V30 9 O  23.2358 39.4833 84.7922 0
M  V30 10 C  23.9745 38.2869 84.9962 0 CFG=2
M  V30 11 C  23.1018 37.0710 85.3929 0 CFG=2
M  V30 12 C  22.2573 36.6448 84.1942 0
M  V30 13 C  22.4843 35.5564 83.4421 0
M  V30 14 O  24.9431 38.4860 85.9889 0
M  V30 15 C  26.1289 39.0823 85.5372 0 CFG=2
M  V30 16 O  27.0281 38.0773 85.1543 0
M  V30 17 C  28.2103 38.5918 84.5275 0 CFG=2
M  V30 18 C  29.0305 37.4063 83.9710 0
M  V30 19 O  28.3225 36.7405 82.9406 0
M  V30 20 C  29.0079 39.4310 85.5582 0 CFG=1
M  V30 21 O  30.1079 40.0778 84.9413 0
M  V30 22 C  28.1116 40.4629 86.2847 0 CFG=2
M  V30 23 O  28.8005 41.0001 87.4060 0
M  V30 24 C  26.7394 39.8773 86.7022 0 CFG=1
M  V30 25 O  25.8524 40.9341 87.0939 0
M  V30 26 C  24.9348 40.7715 88.0796 0
M  V30 27 O  24.9058 39.7789 88.8082 0
M  V30 28 C  24.0496 41.9716 88.2897 0
M  V30 29 C  23.6935 42.3863 89.6029 0
M  V30 30 C  22.7600 43.4165 89.7558 0
M  V30 31 C  22.1837 44.0390 88.6575 0
M  V30 32 O  21.2598 45.0258 88.8452 0
M  V30 33 C  22.5476 43.6605 87.3752 0
M  V30 34 C  23.4801 42.6457 87.1835 0
M  V30 35 O  23.7775 42.3374 85.8800 0
M  V30 36 C  24.2958 41.8239 90.8525 0
M  V30 37 C  23.4931 41.2967 91.8761 0
M  V30 38 C  24.0671 40.7776 93.0388 0
M  V30 39 O  23.2824 40.2756 94.0426 0
M  V30 40 C  25.4524 40.7713 93.1856 0
M  V30 41 C  26.2599 41.3126 92.1892 0
M  V30 42 C  25.6848 41.8403 91.0363 0
M  V30 43 H  21.3705 35.9994 88.0435 0
M  V30 44 H  21.3102 35.4129 86.4200 0
M  V30 45 H  19.4416 36.8826 85.8599 0
M  V30 46 H  19.0599 36.0829 87.3694 0
M  V30 47 H  22.8842 37.5566 87.4906 0
M  V30 48 H  21.6754 40.6211 85.3513 0
M  V30 49 H  24.4714 38.0989 84.0432 0
M  V30 50 H  23.7915 36.2679 85.6608 0
M  V30 51 H  21.4225 37.2853 83.9445 0
M  V30 52 H  21.8460 35.3115 82.6048 0
M  V30 53 H  23.3085 34.8890 83.6452 0
M  V30 54 H  25.9394 39.7308 84.6742 0
M  V30 55 H  27.9312 39.2302 83.6849 0
M  V30 56 H  29.9756 37.7568 83.5537 0
M  V30 57 H  29.2780 36.7004 84.7652 0
M  V30 58 H  28.8602 36.0171 82.6051 0
M  V30 59 H  29.4266 38.7573 86.3071 0
M  V30 60 H  30.5231 40.6572 85.5902 0
M  V30 61 H  27.9213 41.2993 85.6080 0
M  V30 62 H  29.0554 40.2850 87.9975 0
M  V30 63 H  26.8882 39.1827 87.5316 0
M  V30 64 H  22.4786 43.7503 90.7440 0
M  V30 65 H  20.6910 45.1507 88.0676 0
M  V30 66 H  22.0943 44.1583 86.5282 0
M  V30 67 H  23.3731 42.9518 85.2614 0
M  V30 68 H  22.4193 41.2868 91.7680 0
M  V30 69 H  23.8185 39.9580 94.7800 0
M  V30 70 H  25.9103 40.3562 94.0689 0
M  V30 71 H  27.3318 41.3274 92.3114 0
M  V30 72 H  26.3247 42.2592 90.2730 0
M  V30 END ATOM
M  V30 BEGIN BOND
M  V30 1 1 1 2
M  V30 2 1 1 7
M  V30 3 1 1 43
M  V30 4 1 1 44
M  V30 5 1 2 3
M  V30 6 1 2 45
M  V30 7 1 2 46
M  V30 8 1 3 4
M  V30 9 2 4 5
M  V30 10 1 4 6
M  V30 11 1 6 7
M  V30 12 2 6 8
M  V30 13 1 7 11
M  V30 14 1 7 47
M  V30 15 1 8 9
M  V30 16 1 8 48
M  V30 17 1 9 10
M  V30 18 1 10 11
M  V30 19 1 10 14
M  V30 20 1 10 49
M  V30 21 1 11 12
M  V30 22 1 11 50
M  V30 23 2 12 13
M  V30 24 1 12 51
M  V30 25 1 13 52
M  V30 26 1 13 53
M  V30 27 1 14 15
M  V30 28 1 15 16
M  V30 29 1 15 24
M  V30 30 1 15 54
M  V30 31 1 16 17
M  V30 32 1 17 18
M  V30 33 1 17 20
M  V30 34 1 17 55
M  V30 35 1 18 19
M  V30 36 1 18 56
M  V30 37 1 18 57
M  V30 38 1 19 58
M  V30 39 1 20 21
M  V30 40 1 20 22
M  V30 41 1 20 59
M  V30 42 1 21 60
M  V30 43 1 22 23
M  V30 44 1 22 24
M  V30 45 1 22 61
M  V30 46 1 23 62
M  V30 47 1 24 25
M  V30 48 1 24 63
M  V30 49 1 25 26
M  V30 50 2 26 27
M  V30 51 1 26 28
M  V30 52 1 28 29
M  V30 53 2 28 34
M  V30 54 2 29 30
M  V30 55 1 29 36
M  V30 56 1 30 31
M  V30 57 1 30 64
M  V30 58 1 31 32
M  V30 59 2 31 33
M  V30 60 1 32 65
M  V30 61 1 33 34
M  V30 62 1 33 66
M  V30 63 1 34 35
M  V30 64 1 35 67
M  V30 65 2 36 37
M  V30 66 1 36 42
M  V30 67 1 37 38
M  V30 68 1 37 68
M  V30 69 1 38 39
M  V30 70 2 38 40
M  V30 71 1 39 69
M  V30 72 1 40 41
M  V30 73 1 40 70
M  V30 74 2 41 42
M  V30 75 1 41 71
M  V30 76 1 42 72
M  V30 END BOND
M  V30 END CTAB
M  END
> <s_m_entry_id>
1485

> <s_m_entry_name>
result.5983

> <s_m_Source_Path>
D:\OneDrive - zju.edu.cn\DOC\A-Finished\LCK_VS\Planet\LCK-8617

> <s_m_Source_File>
glide-dock_SP_top1262_2_pv.maegz

> <i_m_Source_File_Index>
1485

> <PLANET_affinity>
7.532

> <i_lp_mmshare_version>
54117

> <i_f3d_flags>
0

> <s_epik_input>
Tz1DMU9bQ0gyXVtDSDJdW0NASF0oQzE9MilbQ0BASF0oW0NIXT1bQ0gyXSlbQ0BASF0oT1tDSF0yKU9bQ0BASF0zT1tDQEhdKFtDSDJdW09IXSlbQ0BASF0oW09IXSlbQ0BIXShbT0hdKVtDQEhdM09DKD1PKWM0YyhbY0hdYyhbT0hdKVtjSF1jNFtPSF0pLWM1W2NIXWMoW09IXSlbY0hdW2NIXVtjSF01

> <s_epik_cmdline>
J2VwaWtfcHl0aG9uJywgJy1waCcsICc3LjAnLCAnLXRuJywgJzgnLCAnLW1hJywgJzUwMCcsICctaW1hZScsICc8aW5maWxlLm1hZT4nLCAnLW9tYWUnLCAnPG91dGZpbGUubWFlPic=

> <r_epik_Ionization_Penalty>
  0.0909

> <r_epik_Ionization_Penalty_Charging>
  0.0000

> <r_epik_Ionization_Penalty_Neutral>
  0.0909

> <r_epik_State_Penalty>
  0.0773

> <r_epik_Charging_Adjusted_Penalty>
0.0773373

> <i_epik_Tot_Q>
0

> <i_epik_Tot_abs_Q>
0

> <s_epik_Chemistry_Notes>
This compound has an ester and may undergo hydrolysis at high or low pH. This compound contains an acetal/aminal-like group ( X-CH(R)-Y where X, Y are N, S, or O) that may be acid/base labile, releasing an aldehyde.

> <s_lp_Force_Field>
S-OPLS

> <r_lp_Energy>
44.0716

> <b_lp_Chiralities_Consistent>
1

> <s_lp_Variant>
C=C[C@H]([C@@]1([H])C(C(OCC1)=O)=CO2)[C@@H]2O[C@@](O[C@H](CO)[C@@H](O)[C@@H]3...-1

> <s_i_glide_gridfile>
glide-grid_1

> <i_i_glide_lignum>
1890

> <i_i_glide_rotatable_bonds>
14

> <r_i_docking_score>
-7.25453165073042

> <r_i_glide_ligand_efficiency>
-0.17272694406501

> <r_i_glide_ligand_efficiency_sa>
-0.60040345911175

> <r_i_glide_ligand_efficiency_ln>
-1.5312447332195

> <r_i_glide_gscore>
-7.33183165073042

> <r_i_glide_lipo>
-2.80777128945528

> <r_i_glide_hbond>
-0.479758630820277

> <r_i_glide_metal>
0

> <r_i_glide_rewards>
-0.293083130806366

> <r_i_glide_evdw>
-42.8549652099609

> <r_i_glide_ecoul>
-13.2659902572632

> <r_i_glide_erotb>
0.381428199439027

> <r_i_glide_esite>
0

> <r_i_glide_emodel>
-75.8634676420475

> <r_i_glide_energy>
-56.1209554672241

> <r_i_glide_einternal>
10.4331426620483

> <i_i_glide_confnum>
11

> <i_i_glide_posenum>
113

> <r_i_glide_eff_state_penalty>
0.0773

> <r_lp_tautomer_probability>
1

> <s_m_subgroup_title>
glide-dock_SP_top1262_2_pv

> <s_m_subgroupid>
glide-dock_SP_top1262_2_pv

> <b_m_subgroup_collapsed>
0

$$$$
COC1=NC=CC(C2=C(N=CN2[C@H]3CC[C@H](O)CC3)C4=CC=C(F)C=C4)=N1
                    3D
 Schrodinger Suite 2021-3.
  0  0  0     0  0            999 V3000
M  V30 BEGIN CTAB
M  V30 COUNTS 48 51 0 0 0
M  V30 BEGIN ATOM
M  V30 1 C  27.5797 36.0296 82.6732 0
M  V30 2 O  26.3788 35.2931 82.4435 0
M  V30 3 C  25.2114 35.7069 83.0520 0
M  V30 4 N  24.0860 35.1542 82.5415 0
M  V30 5 C  22.9156 35.5566 83.0935 0
M  V30 6 C  22.8557 36.5186 84.1021 0
M  V30 7 C  24.0681 37.0553 84.5620 0
M  V30 8 N  25.2562 36.6302 84.0515 0
M  V30 9 C  24.1193 38.1522 85.5982 0
M  V30 10 C  23.1743 38.5002 86.5892 0
M  V30 11 C  21.8341 37.9068 86.8899 0
M  V30 12 C  21.6708 36.5270 87.0525 0
M  V30 13 C  20.4069 35.9983 87.2954 0
M  V30 14 C  19.3086 36.8512 87.3942 0
M  V30 15 F  18.0827 36.3445 87.6457 0
M  V30 16 C  19.4614 38.2260 87.2433 0
M  V30 17 C  20.7235 38.7548 86.9937 0
M  V30 18 N  23.6018 39.4955 87.3446 0
M  V30 19 C  24.7607 39.8279 86.8546 0
M  V30 20 N  25.1301 39.1053 85.7442 0
M  V30 21 C  26.3324 39.3517 84.9085 0 CFG=1
M  V30 22 C  26.5289 40.8720 84.6611 0
M  V30 23 C  27.8309 41.1611 83.8857 0
M  V30 24 C  29.0730 40.5534 84.5657 0 CFG=2
M  V30 25 O  30.2238 40.7568 83.7694 0
M  V30 26 C  28.8807 39.0472 84.8589 0
M  V30 27 C  27.5657 38.7318 85.6089 0
M  V30 28 H  28.3790 35.6363 82.0435 0
M  V30 29 H  27.9126 35.9634 83.7030 0
M  V30 30 H  27.4467 37.0868 82.4440 0
M  V30 31 H  22.0140 35.1304 82.6765 0
M  V30 32 H  21.8996 36.8654 84.4604 0
M  V30 33 H  22.5195 35.8647 86.9756 0
M  V30 34 H  20.2745 34.9335 87.4177 0
M  V30 35 H  18.6003 38.8756 87.3148 0
M  V30 36 H  20.8369 39.8227 86.8671 0
M  V30 37 H  25.3904 40.6184 87.2313 0
M  V30 38 H  26.1233 38.8860 83.9509 0
M  V30 39 H  25.7040 41.2369 84.0474 0
M  V30 40 H  26.4938 41.4601 85.5769 0
M  V30 41 H  27.7390 40.7594 82.8753 0
M  V30 42 H  27.9627 42.2394 83.7792 0
M  V30 43 H  29.2671 41.0544 85.5151 0
M  V30 44 H  30.3745 41.7056 83.6441 0
M  V30 45 H  28.8979 38.4955 83.9182 0
M  V30 46 H  29.7278 38.6772 85.4385 0
M  V30 47 H  27.6200 39.0263 86.6593 0
M  V30 48 H  27.4584 37.6466 85.6118 0
M  V30 END ATOM
M  V30 BEGIN BOND
M  V30 1 1 1 2
M  V30 2 1 1 28
M  V30 3 1 1 29
M  V30 4 1 1 30
M  V30 5 1 2 3
M  V30 6 2 3 4
M  V30 7 1 3 8
M  V30 8 1 4 5
M  V30 9 2 5 6
M  V30 10 1 5 31
M  V30 11 1 6 7
M  V30 12 1 6 32
M  V30 13 2 7 8
M  V30 14 1 7 9
M  V30 15 2 9 10
M  V30 16 1 9 20
M  V30 17 1 10 11
M  V30 18 1 10 18
M  V30 19 2 11 12
M  V30 20 1 11 17
M  V30 21 1 12 13
M  V30 22 1 12 33
M  V30 23 2 13 14
M  V30 24 1 13 34
M  V30 25 1 14 15
M  V30 26 1 14 16
M  V30 27 2 16 17
M  V30 28 1 16 35
M  V30 29 1 17 36
M  V30 30 2 18 19
M  V30 31 1 19 20
M  V30 32 1 19 37
M  V30 33 1 20 21
M  V30 34 1 21 22
M  V30 35 1 21 27
M  V30 36 1 21 38
M  V30 37 1 22 23
M  V30 38 1 22 39
M  V30 39 1 22 40
M  V30 40 1 23 24
M  V30 41 1 23 41
M  V30 42 1 23 42
M  V30 43 1 24 25
M  V30 44 1 24 26
M  V30 45 1 24 43
M  V30 46 1 25 44
M  V30 47 1 26 27
M  V30 48 1 26 45
M  V30 49 1 26 46
M  V30 50 1 27 47
M  V30 51 1 27 48
M  V30 END BOND
M  V30 END CTAB
M  END
> <s_m_entry_id>
1497

> <s_m_entry_name>
result.2347

> <s_m_Source_Path>
D:\OneDrive - zju.edu.cn\DOC\A-Finished\LCK_VS\Planet\LCK-8617

> <s_m_Source_File>
glide-dock_SP_top1262_2_pv.maegz

> <i_m_Source_File_Index>
1497

> <PLANET_affinity>
7.748

> <i_lp_mmshare_version>
54117

> <i_f3d_flags>
0

> <s_epik_input>
W0NIM11PYzFuW2NIXVtjSF1jKG4xKS1jMmMoLWMzW2NIXVtjSF1jKEYpW2NIXVtjSF0zKW5bY0hdbjJbQ0BIXTRbQ0gyXVtDSDJdW0NASF0oW09IXSlbQ0gyXVtDSDJdNA==

> <s_epik_cmdline>
J2VwaWtfcHl0aG9uJywgJy1waCcsICc3LjAnLCAnLXRuJywgJzgnLCAnLW1hJywgJzUwMCcsICctaW1hZScsICc8aW5maWxlLm1hZT4nLCAnLW9tYWUnLCAnPG91dGZpbGUubWFlPic=

> <r_epik_Ionization_Penalty>
  0.0375

> <r_epik_Ionization_Penalty_Charging>
  0.0375

> <r_epik_Ionization_Penalty_Neutral>
  0.0000

> <r_epik_State_Penalty>
  0.0313

> <r_epik_Charging_Adjusted_Penalty>
0.0688035

> <i_epik_Tot_Q>
0

> <i_epik_Tot_abs_Q>
0

> <s_lp_Force_Field>
S-OPLS

> <r_lp_Energy>
29.1778

> <b_lp_Chiralities_Consistent>
1

> <s_lp_Variant>
COC1=NC=CC(C2=C(N=CN2[C@H]3CC[C@H](O)CC3)C4=CC=C(F)C=C4)=N1-1

> <s_i_glide_gridfile>
glide-grid_1

> <i_i_glide_lignum>
1574

> <i_i_glide_rotatable_bonds>
5

> <r_i_docking_score>
-7.24819852231977

> <r_i_glide_ligand_efficiency>
-0.268451797122954

> <r_i_glide_ligand_efficiency_sa>
-0.80535539048409

> <r_i_glide_ligand_efficiency_ln>
-1.68726112010429

> <r_i_glide_gscore>
-7.27949852231977

> <r_i_glide_lipo>
-2.47487725311561

> <r_i_glide_hbond>
-0.164835834330377

> <r_i_glide_metal>
0

> <r_i_glide_rewards>
-2.51791952980183

> <r_i_glide_evdw>
-37.6650314331055

> <r_i_glide_ecoul>
-4.4303126335144

> <r_i_glide_erotb>
0.425932561610475

> <r_i_glide_esite>
0

> <r_i_glide_emodel>
-57.6765108863137

> <r_i_glide_energy>
-42.0953440666199

> <r_i_glide_einternal>
4.9041109085083

> <i_i_glide_confnum>
20

> <i_i_glide_posenum>
376

> <r_i_glide_eff_state_penalty>
0.0313

> <r_lp_tautomer_probability>
1

> <s_m_subgroup_title>
glide-dock_SP_top1262_2_pv

> <s_m_subgroupid>
glide-dock_SP_top1262_2_pv

> <b_m_subgroup_collapsed>
0

$$$$
O=C1C=CC2=CN=C(NC3=CC=C(OCCN)C=C3)N=C2N1C4C(C5)CCC5C4
                    3D
 Schrodinger Suite 2021-3.
  0  0  0     0  0            999 V3000
M  V30 BEGIN CTAB
M  V30 COUNTS 55 59 0 0 0
M  V30 BEGIN ATOM
M  V30 1 C  27.5880 39.0736 87.1783 0
M  V30 2 C  27.2946 40.5868 87.2705 0
M  V30 3 C  25.7612 40.6228 87.4631 0 CFG=2
M  V30 4 C  25.5279 39.3476 88.2645 0
M  V30 5 C  25.0293 40.2926 86.1410 0
M  V30 6 C  25.4240 38.8043 85.8987 0 CFG=1
M  V30 7 C  26.1753 38.4444 87.2139 0 CFG=1
M  V30 8 N  24.3721 37.8247 85.4582 0
M  V30 9 C  23.1135 37.8227 86.0329 0
M  V30 10 O  22.7408 38.4914 86.9933 0
M  V30 11 C  22.1493 36.9288 85.4080 0
M  V30 12 C  22.4445 36.0808 84.4051 0
M  V30 13 C  24.7642 36.8834 84.4375 0
M  V30 14 C  23.8030 36.0224 83.8847 0
M  V30 15 N  26.0665 36.8156 84.0307 0
M  V30 16 C  26.3720 35.9354 83.0417 0
M  V30 17 N  25.4857 35.1047 82.4429 0
M  V30 18 C  24.2003 35.1568 82.8693 0
M  V30 19 N  27.6822 35.8055 82.5734 0
M  V30 20 C  28.9194 36.3568 82.9416 0
M  V30 21 C  29.0420 37.4963 83.7447 0
M  V30 22 C  30.2998 37.9690 84.1056 0
M  V30 23 C  31.4470 37.3096 83.6612 0
M  V30 24 C  31.3318 36.2016 82.8226 0
M  V30 25 C  30.0718 35.7249 82.4673 0
M  V30 26 O  32.6969 37.7643 84.0091 0
M  V30 27 C  33.0462 37.6471 85.3866 0
M  V30 28 C  33.6748 36.2643 85.6399 0
M  V30 29 N  34.0823 36.1185 87.1128 0 CHG=1
M  V30 30 H  28.1732 38.7563 88.0420 0
M  V30 31 H  28.1531 38.8047 86.2881 0
M  V30 32 H  27.6143 41.1284 86.3798 0
M  V30 33 H  27.8086 41.0291 88.1257 0
M  V30 34 H  25.4021 41.5338 87.9456 0
M  V30 35 H  24.4771 39.1460 88.4439 0
M  V30 36 H  26.0359 39.3396 89.2321 0
M  V30 37 H  25.3513 40.9400 85.3253 0
M  V30 38 H  23.9600 40.4624 86.2647 0
M  V30 39 H  26.2009 38.8773 85.1380 0
M  V30 40 H  26.1777 37.3818 87.4557 0
M  V30 41 H  21.1354 36.9621 85.7805 0
M  V30 42 H  21.6832 35.4438 83.9796 0
M  V30 43 H  23.4977 34.4783 82.4044 0
M  V30 44 H  27.7383 35.1586 81.7993 0
M  V30 45 H  28.1796 38.0364 84.0926 0
M  V30 46 H  30.3879 38.8500 84.7257 0
M  V30 47 H  32.2183 35.7043 82.4572 0
M  V30 48 H  30.0004 34.8537 81.8304 0
M  V30 49 H  32.1948 37.8290 86.0463 0
M  V30 50 H  33.7712 38.4338 85.5983 0
M  V30 51 H  34.5970 36.1108 85.0782 0
M  V30 52 H  32.9917 35.4363 85.4447 0
M  V30 53 H  34.4908 35.1964 87.2417 0
M  V30 54 H  33.2869 36.2004 87.7271 0
M  V30 55 H  34.7686 36.8119 87.3682 0
M  V30 END ATOM
M  V30 BEGIN BOND
M  V30 1 1 1 2
M  V30 2 1 1 7
M  V30 3 1 1 30
M  V30 4 1 1 31
M  V30 5 1 2 3
M  V30 6 1 2 32
M  V30 7 1 2 33
M  V30 8 1 3 4
M  V30 9 1 3 5
M  V30 10 1 3 34
M  V30 11 1 4 7
M  V30 12 1 4 35
M  V30 13 1 4 36
M  V30 14 1 5 6
M  V30 15 1 5 37
M  V30 16 1 5 38
M  V30 17 1 6 7
M  V30 18 1 6 8
M  V30 19 1 6 39
M  V30 20 1 7 40
M  V30 21 1 8 9
M  V30 22 1 8 13
M  V30 23 2 9 10
M  V30 24 1 9 11
M  V30 25 2 11 12
M  V30 26 1 11 41
M  V30 27 1 12 14
M  V30 28 1 12 42
M  V30 29 1 13 14
M  V30 30 2 13 15
M  V30 31 2 14 18
M  V30 32 1 15 16
M  V30 33 2 16 17
M  V30 34 1 16 19
M  V30 35 1 17 18
M  V30 36 1 18 43
M  V30 37 1 19 20
M  V30 38 1 19 44
M  V30 39 2 20 21
M  V30 40 1 20 25
M  V30 41 1 21 22
M  V30 42 1 21 45
M  V30 43 2 22 23
M  V30 44 1 22 46
M  V30 45 1 23 24
M  V30 46 1 23 26
M  V30 47 2 24 25
M  V30 48 1 24 47
M  V30 49 1 25 48
M  V30 50 1 26 27
M  V30 51 1 27 28
M  V30 52 1 27 49
M  V30 53 1 27 50
M  V30 54 1 28 29
M  V30 55 1 28 51
M  V30 56 1 28 52
M  V30 57 1 29 53
M  V30 58 1 29 54
M  V30 59 1 29 55
M  V30 END BOND
M  V30 END CTAB
M  END
> <s_m_entry_id>
1502

> <s_m_entry_name>
result.3272

> <s_m_Source_Path>
D:\OneDrive - zju.edu.cn\DOC\A-Finished\LCK_VS\Planet\LCK-8617

> <s_m_Source_File>
glide-dock_SP_top1262_2_pv.maegz

> <i_m_Source_File_Index>
1502

> <PLANET_affinity>
7.926

> <i_lp_mmshare_version>
54117

> <i_f3d_flags>
0

> <s_epik_input>
W0NIXTEyW0NIMl1bQ0gyXVtDSF0oW0NIMl0xKVtDQEhdKFtDSDJdMiluM2MoPU8pW2NIXVtjSF1jKGMzNClbY0hdbmMobjQpW05IXWM1W2NIXVtjSF1jKFtjSF1bY0hdNSlPW0NIMl1bQ0gyXVtOSDJd

> <s_epik_cmdline>
J2VwaWtfcHl0aG9uJywgJy1waCcsICc3LjAnLCAnLXRuJywgJzgnLCAnLW1hJywgJzUwMCcsICctaW1hZScsICc8aW5maWxlLm1hZT4nLCAnLW9tYWUnLCAnPG91dGZpbGUubWFlPic=

> <r_epik_Ionization_Penalty>
  0.0069

> <r_epik_Ionization_Penalty_Charging>
  0.0069

> <r_epik_Ionization_Penalty_Neutral>
  0.0000

> <r_epik_State_Penalty>
  0.0051

> <r_epik_Charging_Adjusted_Penalty>
0.0120116

> <i_epik_Tot_Q>
1

> <i_epik_Tot_abs_Q>
1

> <s_epik_Chemistry_Notes>
This compound has an imine and may undergo hydrolysis.

> <s_lp_Force_Field>
S-OPLS

> <r_lp_Energy>
76.8697

> <b_lp_Chiralities_Consistent>
1

> <s_lp_Variant>
O=C1C=CC2=CN=C(NC3=CC=C(OCCN)C=C3)N=C2N1C4C(C5)CCC5C4-1

> <s_i_glide_gridfile>
glide-grid_1

> <i_i_glide_lignum>
1377

> <i_i_glide_rotatable_bonds>
6

> <r_i_docking_score>
-7.24709573780557

> <r_i_glide_ligand_efficiency>
-0.249899853027778

> <r_i_glide_ligand_efficiency_sa>
-0.767771522331892

> <r_i_glide_ligand_efficiency_ln>
-1.65940115346572

> <r_i_glide_gscore>
-7.25219573780557

> <r_i_glide_lipo>
-2.49534443007016

> <r_i_glide_hbond>
-0.741308494793576

> <r_i_glide_metal>
0

> <r_i_glide_rewards>
-1.06951848180726

> <r_i_glide_evdw>
-37.2453994750977

> <r_i_glide_ecoul>
-9.46400928497314

> <r_i_glide_erotb>
0.443649147930181

> <r_i_glide_esite>
-0.107802112563903

> <r_i_glide_emodel>
-63.2018293847078

> <r_i_glide_energy>
-46.7094087600708

> <r_i_glide_einternal>
9.74144649505615

> <i_i_glide_confnum>
156

> <i_i_glide_posenum>
114

> <r_i_glide_eff_state_penalty>
0.0051

> <s_m_subgroup_title>
glide-dock_SP_top1262_2_pv

> <s_m_subgroupid>
glide-dock_SP_top1262_2_pv

> <b_m_subgroup_collapsed>
0

$$$$
O=C(NC1=CC(C(C)(C)C)=CC(NS(=O)(C)=O)=C1OC)C(C2=C3C=CC=CC3=C(OCCN4CCOCC4)C=C2)...
                    3D
 Schrodinger Suite 2021-3.
  0  0  0     0  0            999 V3000
M  V30 BEGIN CTAB
M  V30 COUNTS 78 81 0 0 0
M  V30 BEGIN ATOM
M  V30 1 O  35.1893 34.9193 82.6289 0
M  V30 2 S  34.0001 34.0826 82.4385 0
M  V30 3 O  33.8872 33.1919 81.2799 0
M  V30 4 C  33.6805 33.0799 83.9922 0
M  V30 5 N  32.5840 35.1441 82.3820 0
M  V30 6 C  32.2778 36.1610 83.3043 0
M  V30 7 C  31.0194 36.7738 83.2274 0
M  V30 8 O  30.1225 36.3820 82.2537 0
M  V30 9 C  29.3143 35.2680 82.6165 0
M  V30 10 C  33.1742 36.5699 84.2958 0
M  V30 11 C  32.8663 37.5967 85.1967 0
M  V30 12 C  33.9313 38.0292 86.2375 0
M  V30 13 C  33.5175 39.2812 87.0520 0
M  V30 14 C  35.2620 38.3842 85.5249 0
M  V30 15 C  34.1859 36.8703 87.2329 0
M  V30 16 C  31.5959 38.1951 85.1072 0
M  V30 17 C  30.6752 37.7901 84.1304 0
M  V30 18 N  29.4096 38.3795 83.9647 0
M  V30 19 C  28.6289 38.9900 84.8804 0
M  V30 20 O  28.8539 39.1580 86.0788 0
M  V30 21 C  27.2781 39.4593 84.2254 0
M  V30 22 O  27.3140 40.2024 83.2433 0
M  V30 23 C  26.0335 38.8069 84.7300 0
M  V30 24 C  25.3961 39.3519 85.8459 0
M  V30 25 C  24.2232 38.8030 86.3483 0
M  V30 26 C  23.6331 37.6777 85.7574 0
M  V30 27 C  24.2608 37.0922 84.6224 0
M  V30 28 C  25.4803 37.6428 84.1094 0
M  V30 29 C  23.6958 35.9562 83.9793 0
M  V30 30 C  24.3361 35.3456 82.9081 0
M  V30 31 C  25.5429 35.8461 82.4437 0
M  V30 32 C  26.0943 36.9883 83.0009 0
M  V30 33 O  22.4828 37.0628 86.2295 0
M  V30 34 C  21.7410 37.6038 87.3218 0
M  V30 35 C  20.8020 38.7684 86.9309 0
M  V30 36 N  19.6687 38.3304 86.1030 0
M  V30 37 C  20.0180 38.2215 84.6774 0
M  V30 38 C  18.7944 37.8672 83.7970 0
M  V30 39 O  17.7136 38.7575 84.0371 0
M  V30 40 C  17.3106 38.7669 85.4036 0
M  V30 41 C  18.4932 39.1891 86.3059 0
M  V30 42 H  34.4970 32.3711 84.1245 0
M  V30 43 H  32.7348 32.5514 83.8849 0
M  V30 44 H  33.6402 33.7508 84.8451 0
M  V30 45 H  31.8800 34.9250 81.6899 0
M  V30 46 H  28.8962 34.8101 81.7194 0
M  V30 47 H  29.8662 34.5004 83.1609 0
M  V30 48 H  28.4858 35.5861 83.2463 0
M  V30 49 H  34.1366 36.0978 84.3808 0
M  V30 50 H  32.6183 39.1026 87.6398 0
M  V30 51 H  34.2974 39.5771 87.7561 0
M  V30 52 H  33.3280 40.1410 86.4071 0
M  V30 53 H  35.7037 37.5314 85.0095 0
M  V30 54 H  35.1189 39.1736 84.7855 0
M  V30 55 H  36.0149 38.7363 86.2311 0
M  V30 56 H  34.5378 35.9659 86.7320 0
M  V30 57 H  34.9409 37.1339 87.9755 0
M  V30 58 H  33.2829 36.6034 87.7801 0
M  V30 59 H  31.3245 38.9933 85.7825 0
M  V30 60 H  29.0269 38.2588 83.0383 0
M  V30 61 H  25.8077 40.2232 86.3361 0
M  V30 62 H  23.7837 39.2732 87.2116 0
M  V30 63 H  22.7651 35.5412 84.3427 0
M  V30 64 H  23.8957 34.4694 82.4534 0
M  V30 65 H  26.0671 35.3514 81.6429 0
M  V30 66 H  27.0163 37.3649 82.5888 0
M  V30 67 H  21.1419 36.7888 87.7340 0
M  V30 68 H  22.4031 37.8932 88.1374 0
M  V30 69 H  20.4311 39.2069 87.8585 0
M  V30 70 H  21.3571 39.5632 86.4311 0
M  V30 71 H  20.4471 39.1654 84.3323 0
M  V30 72 H  20.7989 37.4744 84.5372 0
M  V30 73 H  18.4829 36.8338 83.9582 0
M  V30 74 H  19.0663 37.9555 82.7454 0
M  V30 75 H  16.9275 37.7877 85.6970 0
M  V30 76 H  16.4857 39.4684 85.5206 0
M  V30 77 H  18.1835 39.1539 87.3521 0
M  V30 78 H  18.7643 40.2293 86.1111 0
M  V30 END ATOM
M  V30 BEGIN BOND
M  V30 1 2 1 2
M  V30 2 2 2 3
M  V30 3 1 2 4
M  V30 4 1 2 5
M  V30 5 1 4 42
M  V30 6 1 4 43
M  V30 7 1 4 44
M  V30 8 1 5 6
M  V30 9 1 5 45
M  V30 10 2 6 7
M  V30 11 1 6 10
M  V30 12 1 7 8
M  V30 13 1 7 17
M  V30 14 1 8 9
M  V30 15 1 9 46
M  V30 16 1 9 47
M  V30 17 1 9 48
M  V30 18 2 10 11
M  V30 19 1 10 49
M  V30 20 1 11 12
M  V30 21 1 11 16
M  V30 22 1 12 13
M  V30 23 1 12 14
M  V30 24 1 12 15
M  V30 25 1 13 50
M  V30 26 1 13 51
M  V30 27 1 13 52
M  V30 28 1 14 53
M  V30 29 1 14 54
M  V30 30 1 14 55
M  V30 31 1 15 56
M  V30 32 1 15 57
M  V30 33 1 15 58
M  V30 34 2 16 17
M  V30 35 1 16 59
M  V30 36 1 17 18
M  V30 37 1 18 19
M  V30 38 1 18 60
M  V30 39 2 19 20
M  V30 40 1 19 21
M  V30 41 2 21 22
M  V30 42 1 21 23
M  V30 43 2 23 24
M  V30 44 1 23 28
M  V30 45 1 24 25
M  V30 46 1 24 61
M  V30 47 2 25 26
M  V30 48 1 25 62
M  V30 49 1 26 27
M  V30 50 1 26 33
M  V30 51 2 27 28
M  V30 52 1 27 29
M  V30 53 1 28 32
M  V30 54 2 29 30
M  V30 55 1 29 63
M  V30 56 1 30 31
M  V30 57 1 30 64
M  V30 58 2 31 32
M  V30 59 1 31 65
M  V30 60 1 32 66
M  V30 61 1 33 34
M  V30 62 1 34 35
M  V30 63 1 34 67
M  V30 64 1 34 68
M  V30 65 1 35 36
M  V30 66 1 35 69
M  V30 67 1 35 70
M  V30 68 1 36 37
M  V30 69 1 36 41
M  V30 70 1 37 38
M  V30 71 1 37 71
M  V30 72 1 37 72
M  V30 73 1 38 39
M  V30 74 1 38 73
M  V30 75 1 38 74
M  V30 76 1 39 40
M  V30 77 1 40 41
M  V30 78 1 40 75
M  V30 79 1 40 76
M  V30 80 1 41 77
M  V30 81 1 41 78
M  V30 END BOND
M  V30 END CTAB
M  END
> <s_m_entry_id>
1506

> <s_m_entry_name>
result.7964

> <s_m_Source_Path>
D:\OneDrive - zju.edu.cn\DOC\A-Finished\LCK_VS\Planet\LCK-8617

> <s_m_Source_File>
glide-dock_SP_top1262_2_pv.maegz

> <i_m_Source_File_Index>
1506

> <PLANET_affinity>
8.03

> <i_lp_mmshare_version>
54117

> <i_f3d_flags>
0

> <s_epik_input>
Tz1TKD1PKShbQ0gzXSlbTkhdYzFjKE9bQ0gzXSljKFtjSF1jKFtjSF0xKUMoW0NIM10pKFtDSDNdKVtDSDNdKVtOSF1DKD1PKUMoPU8pYyhjKGMyMylbY0hdW2NIXVtjSF1bY0hdMylbY0hdW2NIXWMyT1tDSDJdW0NIMl1ONFtDSDJdW0NIMl1PW0NIMl1bQ0gyXTQ=

> <s_epik_cmdline>
J2VwaWtfcHl0aG9uJywgJy1waCcsICc3LjAnLCAnLXRuJywgJzgnLCAnLW1hJywgJzUwMCcsICctaW1hZScsICc8aW5maWxlLm1hZT4nLCAnLW9tYWUnLCAnPG91dGZpbGUubWFlPic=

> <r_epik_Ionization_Penalty>
  0.0761

> <r_epik_Ionization_Penalty_Charging>
  0.0000

> <r_epik_Ionization_Penalty_Neutral>
  0.0761

> <r_epik_State_Penalty>
  0.0651

> <r_epik_Charging_Adjusted_Penalty>
0.065109

> <i_epik_Tot_Q>
0

> <i_epik_Tot_abs_Q>
0

> <s_lp_Force_Field>
S-OPLS

> <r_lp_Energy>
62.8728

> <b_lp_Chiralities_Consistent>
1

> <s_lp_Variant>
O=C(NC1=CC(C(C)(C)C)=CC(NS(=O)(C)=O)=C1OC)C(C2=C3C=CC=CC3=C(OCCN4CCOCC4)C=C2)...-1

> <s_i_glide_gridfile>
glide-grid_1

> <i_i_glide_lignum>
1270

> <i_i_glide_rotatable_bonds>
12

> <r_i_docking_score>
-7.24359714665735

> <r_i_glide_ligand_efficiency>
-0.176673101137984

> <r_i_glide_ligand_efficiency_sa>
-0.609207232501767

> <r_i_glide_ligand_efficiency_ln>
-1.53675324024949

> <r_i_glide_gscore>
-7.30869714665735

> <r_i_glide_lipo>
-3.54539561795837

> <r_i_glide_hbond>
-0.326043597955369

> <r_i_glide_metal>
0

> <r_i_glide_rewards>
-0.463778896221168

> <r_i_glide_evdw>
-53.8425064086914

> <r_i_glide_ecoul>
-4.24424505233765

> <r_i_glide_erotb>
0.38837309528827

> <r_i_glide_esite>
-0.0330900515254939

> <r_i_glide_emodel>
-79.3210685859895

> <r_i_glide_energy>
-58.0867514610291

> <r_i_glide_einternal>
8.97531032562256

> <i_i_glide_confnum>
207

> <i_i_glide_posenum>
117

> <r_i_glide_eff_state_penalty>
0.0651

> <s_m_subgroup_title>
glide-dock_SP_top1262_2_pv

> <s_m_subgroupid>
glide-dock_SP_top1262_2_pv

> <b_m_subgroup_collapsed>
0

$$$$
O=C1N(C2=CC=CC=C2C)C([C@H](C)NC3=C4N=CNC4=NC(N)=N3)=NC5=C1C(C)=CC=C5.[H]Cl
                    3D
 Schrodinger Suite 2021-3.
  0  0  0     0  0            999 V3000
M  V30 BEGIN CTAB
M  V30 COUNTS 54 58 0 0 0
M  V30 BEGIN ATOM
M  V30 1 C  21.1646 35.4469 87.6429 0
M  V30 2 C  20.1176 36.4830 87.2435 0
M  V30 3 C  18.8251 36.3606 87.7647 0
M  V30 4 C  17.8326 37.2755 87.4183 0
M  V30 5 C  18.1159 38.3150 86.5349 0
M  V30 6 C  19.3981 38.4485 86.0024 0
M  V30 7 C  20.4141 37.5497 86.3635 0
M  V30 8 N  21.7197 37.7258 85.8249 0
M  V30 9 C  22.0394 36.9125 84.7501 0
M  V30 10 O  21.1769 36.3454 84.0706 0
M  V30 11 C  23.5373 36.8090 84.4821 0
M  V30 12 C  24.3748 37.6557 85.2133 0
M  V30 13 C  24.1000 35.9564 83.5041 0
M  V30 14 C  23.2828 35.0097 82.6360 0
M  V30 15 C  25.4872 35.9700 83.3123 0
M  V30 16 C  26.3094 36.8124 84.0555 0
M  V30 17 C  25.7503 37.6579 85.0087 0
M  V30 18 C  22.6149 38.6228 86.4067 0
M  V30 19 N  23.8726 38.5740 86.1325 0
M  V30 20 C  22.0983 39.7682 87.3286 0 CFG=2
M  V30 21 C  21.8843 41.0502 86.4843 0
M  V30 22 N  23.0768 39.9618 88.4073 0
M  V30 23 C  22.9324 40.8939 89.4496 0
M  V30 24 N  21.7505 41.5483 89.6238 0
M  V30 25 C  21.6821 42.4603 90.6224 0
M  V30 26 N  20.5035 43.1756 90.7049 0
M  V30 27 N  22.6318 42.7717 91.5357 0
M  V30 28 C  23.7660 42.0983 91.3399 0
M  V30 29 C  24.0103 41.1524 90.3178 0
M  V30 30 N  24.9392 42.1526 92.0482 0
M  V30 31 C  25.8064 41.2779 91.4334 0
M  V30 32 N  25.2954 40.6692 90.3904 0
M  V30 33 H  20.7950 34.7538 88.3993 0
M  V30 34 H  21.4704 34.8619 86.7755 0
M  V30 35 H  22.0518 35.9388 88.0424 0
M  V30 36 H  18.5814 35.5547 88.4425 0
M  V30 37 H  16.8380 37.1809 87.8337 0
M  V30 38 H  17.3402 39.0206 86.2715 0
M  V30 39 H  19.6012 39.2566 85.3153 0
M  V30 40 H  22.6207 35.5577 81.9670 0
M  V30 41 H  22.6542 34.3604 83.2432 0
M  V30 42 H  23.9108 34.3575 82.0321 0
M  V30 43 H  25.9422 35.3274 82.5720 0
M  V30 44 H  27.3778 36.8139 83.8909 0
M  V30 45 H  26.3809 38.3254 85.5776 0
M  V30 46 H  21.1573 39.4904 87.8040 0
M  V30 47 H  21.2477 40.8674 85.6170 0
M  V30 48 H  21.3966 41.8388 87.0564 0
M  V30 49 H  22.8287 41.4550 86.1155 0
M  V30 50 H  23.9965 39.5696 88.2510 0
M  V30 51 H  20.5410 43.9882 91.2998 0
M  V30 52 H  19.9780 43.2243 89.8427 0
M  V30 53 H  26.8101 41.1569 91.8153 0
M  V30 54 H  25.1649 42.7154 92.8541 0
M  V30 END ATOM
M  V30 BEGIN BOND
M  V30 1 1 1 2
M  V30 2 1 1 33
M  V30 3 1 1 34
M  V30 4 1 1 35
M  V30 5 2 2 3
M  V30 6 1 2 7
M  V30 7 1 3 4
M  V30 8 1 3 36
M  V30 9 2 4 5
M  V30 10 1 4 37
M  V30 11 1 5 6
M  V30 12 1 5 38
M  V30 13 2 6 7
M  V30 14 1 6 39
M  V30 15 1 7 8
M  V30 16 1 8 9
M  V30 17 1 8 18
M  V30 18 2 9 10
M  V30 19 1 9 11
M  V30 20 2 11 12
M  V30 21 1 11 13
M  V30 22 1 12 19
M  V30 23 1 12 17
M  V30 24 1 13 14
M  V30 25 2 13 15
M  V30 26 1 14 40
M  V30 27 1 14 41
M  V30 28 1 14 42
M  V30 29 1 15 16
M  V30 30 1 15 43
M  V30 31 2 16 17
M  V30 32 1 16 44
M  V30 33 1 17 45
M  V30 34 2 18 19
M  V30 35 1 18 20
M  V30 36 1 20 21
M  V30 37 1 20 22
M  V30 38 1 20 46
M  V30 39 1 21 47
M  V30 40 1 21 48
M  V30 41 1 21 49
M  V30 42 1 22 23
M  V30 43 1 22 50
M  V30 44 1 23 24
M  V30 45 2 23 29
M  V30 46 2 24 25
M  V30 47 1 25 26
M  V30 48 1 25 27
M  V30 49 1 26 51
M  V30 50 1 26 52
M  V30 51 2 27 28
M  V30 52 1 28 29
M  V30 53 1 28 30
M  V30 54 1 29 32
M  V30 55 1 30 31
M  V30 56 1 30 54
M  V30 57 2 31 32
M  V30 58 1 31 53
M  V30 END BOND
M  V30 END CTAB
M  END
> <s_m_entry_id>
1510

> <s_m_entry_name>
result.6574

> <s_m_Source_Path>
D:\OneDrive - zju.edu.cn\DOC\A-Finished\LCK_VS\Planet\LCK-8617

> <s_m_Source_File>
glide-dock_SP_top1262_2_pv.maegz

> <i_m_Source_File_Index>
1510

> <PLANET_affinity>
7.526

> <i_lp_mmshare_version>
54117

> <i_f3d_flags>
0

> <s_epik_input>
W0NIM11jMVtjSF1bY0hdW2NIXVtjSF1jMS1uKGMyPU8pYyhuYyhjMjMpW2NIXVtjSF1bY0hdYzNbQ0gzXSlbQ0BIXShbQ0gzXSlbTkhdYyhuYyhuNClbTkgyXSljKGM0NSluW2NIXVtuSF01

> <s_epik_cmdline>
J2VwaWtfcHl0aG9uJywgJy1waCcsICc3LjAnLCAnLXRuJywgJzgnLCAnLW1hJywgJzUwMCcsICctaW1hZScsICc8aW5maWxlLm1hZT4nLCAnLW9tYWUnLCAnPG91dGZpbGUubWFlPic=

> <r_epik_Ionization_Penalty>
  0.0041

> <r_epik_Ionization_Penalty_Charging>
  0.0000

> <r_epik_Ionization_Penalty_Neutral>
  0.0041

> <r_epik_State_Penalty>
  0.0077

> <r_epik_Charging_Adjusted_Penalty>
0.00765179

> <i_epik_Tot_Q>
0

> <i_epik_Tot_abs_Q>
0

> <s_lp_Force_Field>
S-OPLS

> <r_lp_Energy>
47.2862

> <b_lp_Chiralities_Consistent>
1

> <s_lp_Variant>
O=C1N(C2=CC=CC=C2C)C([C@H](C)NC3=C4N=CNC4=NC(N)=N3)=NC5=C1C(C)=CC=C5.[H]Cl-1

> <s_i_glide_gridfile>
glide-grid_1

> <i_i_glide_lignum>
1907

> <i_i_glide_rotatable_bonds>
4

> <r_i_docking_score>
-7.24206337209103

> <r_i_glide_ligand_efficiency>
-0.226314480377845

> <r_i_glide_ligand_efficiency_sa>
-0.718503687624806

> <r_i_glide_ligand_efficiency_ln>
-1.62169540020285

> <r_i_glide_gscore>
-7.24976337209103

> <r_i_glide_lipo>
-3.20507987431656

> <r_i_glide_hbond>
-0.309343856338043

> <r_i_glide_metal>
0

> <r_i_glide_rewards>
-1.19996855021471

> <r_i_glide_evdw>
-43.9116973876953

> <r_i_glide_ecoul>
-4.51460361480713

> <r_i_glide_erotb>
0.43647260772961

> <r_i_glide_esite>
-0.0990682873454902

> <r_i_glide_emodel>
-69.0922462289844

> <r_i_glide_energy>
-48.4263010025024

> <r_i_glide_einternal>
0.97033280134201

> <i_i_glide_confnum>
12

> <i_i_glide_posenum>
248

> <r_i_glide_eff_state_penalty>
0.0077

> <r_lp_tautomer_probability>
1

> <s_m_subgroup_title>
glide-dock_SP_top1262_2_pv

> <s_m_subgroupid>
glide-dock_SP_top1262_2_pv

> <b_m_subgroup_collapsed>
0

$$$$
O=C(NCCN1CCOCC1)NC2=NC3=CC=C(SC4=NN=C5C=CC(C6=CC=C(F)C=C6)=NN54)C=C3S2
                    3D
 Schrodinger Suite 2021-3.
  0  0  0     0  0            999 V3000
M  V30 BEGIN CTAB
M  V30 COUNTS 62 67 0 0 0
M  V30 BEGIN ATOM
M  V30 1 C  34.0812 33.9086 83.8763 0
M  V30 2 C  34.5829 32.4727 83.6379 0
M  V30 3 O  35.1042 32.3254 82.3177 0
M  V30 4 C  34.1570 32.5862 81.2863 0
M  V30 5 C  33.6653 34.0450 81.3587 0
M  V30 6 N  33.0788 34.3113 82.7663 0 CHG=1
M  V30 7 C  32.6647 35.7869 82.9854 0
M  V30 8 C  31.6532 36.3002 81.9370 0
M  V30 9 N  30.3172 35.7085 82.0437 0
M  V30 10 C  29.3866 36.1084 82.9251 0
M  V30 11 O  29.6661 36.7509 83.9384 0
M  V30 12 N  28.1465 35.7581 82.5299 0
M  V30 13 C  26.9355 36.1406 83.0957 0
M  V30 14 N  25.8408 35.5112 82.7697 0
M  V30 15 S  26.7456 37.4914 84.2205 0
M  V30 16 C  25.0337 37.1188 84.2881 0
M  V30 17 C  24.7609 36.0218 83.4230 0
M  V30 18 C  24.0120 37.7498 85.0119 0
M  V30 19 C  22.7075 37.2751 84.8567 0
M  V30 20 C  22.4328 36.1929 84.0156 0
M  V30 21 C  23.4437 35.5562 83.2884 0
M  V30 22 S  21.3778 38.0639 85.7224 0
M  V30 23 C  21.6902 39.7515 85.3067 0
M  V30 24 N  21.7466 40.2146 84.0732 0
M  V30 25 N  22.0396 41.5660 84.0891 0
M  V30 26 N  21.9225 40.7816 86.1986 0
M  V30 27 C  22.1395 41.9089 85.3921 0
M  V30 28 N  21.9544 40.7395 87.5462 0
M  V30 29 C  22.2110 41.9366 88.1538 0
M  V30 30 C  22.4381 43.1218 87.4361 0
M  V30 31 C  22.4099 43.1208 86.0406 0
M  V30 32 C  22.2562 41.9210 89.6477 0
M  V30 33 C  21.7396 42.9957 90.3868 0
M  V30 34 C  21.7898 42.9902 91.7798 0
M  V30 35 C  22.3596 41.9133 92.4499 0
M  V30 36 F  22.3981 41.9023 93.8025 0
M  V30 37 C  22.8834 40.8405 91.7337 0
M  V30 38 C  22.8307 40.8440 90.3408 0
M  V30 39 H  33.5691 33.9913 84.8359 0
M  V30 40 H  34.9076 34.6204 83.8606 0
M  V30 41 H  35.3833 32.2548 84.3475 0
M  V30 42 H  33.7966 31.7401 83.8308 0
M  V30 43 H  34.6278 32.3978 80.3182 0
M  V30 44 H  33.3204 31.8884 81.3561 0
M  V30 45 H  34.4750 34.7572 81.1905 0
M  V30 46 H  32.8801 34.2150 80.6277 0
M  V30 47 H  32.2406 35.8175 83.9894 0
M  V30 48 H  33.5850 36.3737 82.9723 0
M  V30 49 H  31.5654 37.3849 82.0522 0
M  V30 50 H  32.0253 36.1694 80.9218 0
M  V30 51 H  30.0778 35.0128 81.3502 0
M  V30 52 H  28.0629 35.1756 81.7087 0
M  V30 53 H  24.2256 38.5895 85.6589 0
M  V30 54 H  21.4130 35.8540 83.9002 0
M  V30 55 H  23.2091 34.7329 82.6306 0
M  V30 56 H  22.6335 44.0514 87.9527 0
M  V30 57 H  22.5699 44.0257 85.4739 0
M  V30 58 H  21.2889 43.8411 89.8823 0
M  V30 59 H  21.3864 43.8225 92.3410 0
M  V30 60 H  23.3248 40.0075 92.2625 0
M  V30 61 H  23.2490 40.0104 89.7934 0
M  V30 62 H  32.2628 33.7258 82.8695 0
M  V30 END ATOM
M  V30 BEGIN BOND
M  V30 1 1 1 2
M  V30 2 1 1 6
M  V30 3 1 1 39
M  V30 4 1 1 40
M  V30 5 1 2 3
M  V30 6 1 2 41
M  V30 7 1 2 42
M  V30 8 1 3 4
M  V30 9 1 4 5
M  V30 10 1 4 43
M  V30 11 1 4 44
M  V30 12 1 5 6
M  V30 13 1 5 45
M  V30 14 1 5 46
M  V30 15 1 6 7
M  V30 16 1 6 62
M  V30 17 1 7 8
M  V30 18 1 7 47
M  V30 19 1 7 48
M  V30 20 1 8 9
M  V30 21 1 8 49
M  V30 22 1 8 50
M  V30 23 1 9 10
M  V30 24 1 9 51
M  V30 25 2 10 11
M  V30 26 1 10 12
M  V30 27 1 12 13
M  V30 28 1 12 52
M  V30 29 2 13 14
M  V30 30 1 13 15
M  V30 31 1 14 17
M  V30 32 1 15 16
M  V30 33 2 16 17
M  V30 34 1 16 18
M  V30 35 1 17 21
M  V30 36 2 18 19
M  V30 37 1 18 53
M  V30 38 1 19 20
M  V30 39 1 19 22
M  V30 40 2 20 21
M  V30 41 1 20 54
M  V30 42 1 21 55
M  V30 43 1 22 23
M  V30 44 2 23 24
M  V30 45 1 23 26
M  V30 46 1 24 25
M  V30 47 2 25 27
M  V30 48 1 26 27
M  V30 49 1 26 28
M  V30 50 1 27 31
M  V30 51 2 28 29
M  V30 52 1 29 30
M  V30 53 1 29 32
M  V30 54 2 30 31
M  V30 55 1 30 56
M  V30 56 1 31 57
M  V30 57 2 32 33
M  V30 58 1 32 38
M  V30 59 1 33 34
M  V30 60 1 33 58
M  V30 61 2 34 35
M  V30 62 1 34 59
M  V30 63 1 35 36
M  V30 64 1 35 37
M  V30 65 2 37 38
M  V30 66 1 37 60
M  V30 67 1 38 61
M  V30 END BOND
M  V30 END CTAB
M  END
> <s_m_entry_id>
1525

> <s_m_entry_name>
result.8379

> <s_m_Source_Path>
D:\OneDrive - zju.edu.cn\DOC\A-Finished\LCK_VS\Planet\LCK-8617

> <s_m_Source_File>
glide-dock_SP_top1262_2_pv.maegz

> <i_m_Source_File_Index>
1525

> <PLANET_affinity>
8.718

> <i_lp_mmshare_version>
54117

> <i_f3d_flags>
0

> <s_epik_input>
W0NIMl0xW0NIMl1PW0NIMl1bQ0gyXU4xW0NIMl1bQ0gyXVtOSF1DKD1PKVtOSF1jKHMyKW5jKGMyMylbY0hdW2NIXWMoW2NIXTMpU2M0bm5jKG40NSlbY0hdW2NIXWMobjUpLWM2W2NIXVtjSF1jKEYpW2NIXVtjSF02

> <s_epik_cmdline>
J2VwaWtfcHl0aG9uJywgJy1waCcsICc3LjAnLCAnLXRuJywgJzgnLCAnLW1hJywgJzUwMCcsICctaW1hZScsICc8aW5maWxlLm1hZT4nLCAnLW9tYWUnLCAnPG91dGZpbGUubWFlPic=

> <r_epik_Ionization_Penalty>
  0.6967

> <r_epik_Ionization_Penalty_Charging>
  0.6957

> <r_epik_Ionization_Penalty_Neutral>
  0.0010

> <r_epik_State_Penalty>
  0.7180

> <r_epik_Charging_Adjusted_Penalty>
1.41367

> <i_epik_Tot_Q>
1

> <i_epik_Tot_abs_Q>
1

> <s_lp_Force_Field>
S-OPLS

> <r_lp_Energy>
50.5585

> <b_lp_Chiralities_Consistent>
1

> <s_lp_Variant>
O=C(NCCN1CCOCC1)NC2=NC3=CC=C(SC4=NN=C5C=CC(C6=CC=C(F)C=C6)=NN54)C=C3S2-2

> <s_i_glide_gridfile>
glide-grid_1

> <i_i_glide_lignum>
664

> <i_i_glide_rotatable_bonds>
9

> <r_i_docking_score>
-7.23699462692615

> <r_i_glide_ligand_efficiency>
-0.190447227024372

> <r_i_glide_ligand_efficiency_sa>
-0.640278892772642

> <r_i_glide_ligand_efficiency_ln>
-1.56050893237812

> <r_i_glide_gscore>
-7.95499462692615

> <r_i_glide_lipo>
-1.96842749000552

> <r_i_glide_hbond>
-0.379237459612915

> <r_i_glide_metal>
0

> <r_i_glide_rewards>
-1.68742885178951

> <r_i_glide_evdw>
-49.8719902038574

> <r_i_glide_ecoul>
-12.4615068435669

> <r_i_glide_erotb>
0.474852300804855

> <r_i_glide_esite>
-0.0319275895951572

> <r_i_glide_emodel>
-97.3356915682595

> <r_i_glide_energy>
-62.3334970474243

> <r_i_glide_einternal>
2.2367570400238

> <i_i_glide_confnum>
215

> <i_i_glide_posenum>
15

> <r_i_glide_eff_state_penalty>
0.718

> <s_m_subgroup_title>
glide-dock_SP_top1262_2_pv

> <s_m_subgroupid>
glide-dock_SP_top1262_2_pv

> <b_m_subgroup_collapsed>
0

$$$$
CP(C)(C1=CC=CC=C1NC2=NC(NC3=CC=C(N4CCC(N(C)C)CC4)C=C3OC)=NC=C2Cl)=O
                    3D
 Schrodinger Suite 2021-3.
  0  0  0     0  0            999 V3000
M  V30 BEGIN CTAB
M  V30 COUNTS 71 74 0 0 0
M  V30 BEGIN ATOM
M  V30 1 C  19.1271 37.9567 83.4754 0
M  V30 2 P  19.2091 38.6589 85.1620 0
M  V30 3 O  19.9988 39.9152 85.2573 0
M  V30 4 C  17.4268 38.8268 85.5669 0
M  V30 5 C  19.8728 37.3056 86.1931 0
M  V30 6 C  19.0666 36.7748 87.2114 0
M  V30 7 C  19.4750 35.6564 87.9297 0
M  V30 8 C  20.6965 35.0591 87.6435 0
M  V30 9 C  21.5278 35.6148 86.6782 0
M  V30 10 C  21.1430 36.7450 85.9493 0
M  V30 11 N  22.0313 37.3036 85.0100 0
M  V30 12 C  23.1562 36.7029 84.4182 0
M  V30 13 N  24.3828 37.2249 84.7043 0
M  V30 14 C  25.4566 36.7067 84.0407 0
M  V30 15 N  25.3947 35.6983 83.1325 0
M  V30 16 C  24.1655 35.2183 82.8377 0
M  V30 17 C  23.0113 35.7095 83.4344 0
M  V30 18 Cl 21.4924 35.1567 82.8523 0
M  V30 19 N  26.6913 37.3094 84.3225 0
M  V30 20 C  28.0146 37.1566 83.8516 0
M  V30 21 C  28.3853 36.2506 82.8442 0
M  V30 22 C  29.7147 36.1307 82.4433 0
M  V30 23 C  30.7122 36.9161 83.0267 0
M  V30 24 C  30.3419 37.8233 84.0216 0
M  V30 25 C  29.0071 37.9605 84.4392 0
M  V30 26 O  28.6153 38.8588 85.4205 0
M  V30 27 C  29.5790 39.7326 86.0004 0
M  V30 28 N  32.0449 36.8285 82.6419 0
M  V30 29 C  32.4992 36.4454 81.2987 0
M  V30 30 C  32.9393 34.9665 81.2440 0
M  V30 31 C  33.9935 34.6053 82.3166 0
M  V30 32 N  34.2003 33.0629 82.3549 0 CHG=1
M  V30 33 C  34.7891 32.5042 81.0377 0
M  V30 34 C  35.0405 32.5693 83.5544 0
M  V30 35 C  33.5578 35.1654 83.6971 0
M  V30 36 C  33.1352 36.6494 83.6116 0
M  V30 37 H  18.7526 36.9351 83.5097 0
M  V30 38 H  18.4663 38.5439 82.8417 0
M  V30 39 H  20.1157 37.9558 83.0200 0
M  V30 40 H  16.9063 37.8787 85.4466 0
M  V30 41 H  17.2982 39.1567 86.5945 0
M  V30 42 H  16.9463 39.5552 84.9188 0
M  V30 43 H  18.0981 37.1909 87.4419 0
M  V30 44 H  18.8293 35.2346 88.6868 0
M  V30 45 H  21.0090 34.1769 88.1844 0
M  V30 46 H  22.4823 35.1566 86.5067 0
M  V30 47 H  22.0378 38.3149 85.0100 0
M  V30 48 H  24.0995 34.4638 82.0704 0
M  V30 49 H  26.6184 38.0328 85.0236 0
M  V30 50 H  27.6707 35.6178 82.3480 0
M  V30 51 H  29.9611 35.4199 81.6669 0
M  V30 52 H  31.1142 38.4403 84.4536 0
M  V30 53 H  29.1135 40.3155 86.7950 0
M  V30 54 H  30.4074 39.1789 86.4439 0
M  V30 55 H  29.9733 40.4312 85.2617 0
M  V30 56 H  33.3437 37.0835 81.0357 0
M  V30 57 H  31.7285 36.6641 80.5564 0
M  V30 58 H  33.2837 34.7176 80.2402 0
M  V30 59 H  32.0552 34.3424 81.3746 0
M  V30 60 H  34.9288 35.1002 82.0480 0
M  V30 61 H  35.7414 33.0097 80.8595 0
M  V30 62 H  34.0834 32.6923 80.2280 0
M  V30 63 H  34.9261 31.4290 81.1569 0
M  V30 64 H  35.9828 33.1187 83.5724 0
M  V30 65 H  34.4491 32.7593 84.4435 0
M  V30 66 H  35.2049 31.4962 83.4579 0
M  V30 67 H  32.7100 34.5913 84.0787 0
M  V30 68 H  34.3362 35.0268 84.4484 0
M  V30 69 H  33.9825 37.2482 83.2759 0
M  V30 70 H  32.8756 37.0361 84.5969 0
M  V30 71 H  33.2798 32.6610 82.4652 0
M  V30 END ATOM
M  V30 BEGIN BOND
M  V30 1 1 1 2
M  V30 2 1 1 37
M  V30 3 1 1 38
M  V30 4 1 1 39
M  V30 5 2 2 3
M  V30 6 1 2 4
M  V30 7 1 2 5
M  V30 8 1 4 40
M  V30 9 1 4 41
M  V30 10 1 4 42
M  V30 11 2 5 6
M  V30 12 1 5 10
M  V30 13 1 6 7
M  V30 14 1 6 43
M  V30 15 2 7 8
M  V30 16 1 7 44
M  V30 17 1 8 9
M  V30 18 1 8 45
M  V30 19 2 9 10
M  V30 20 1 9 46
M  V30 21 1 10 11
M  V30 22 1 11 12
M  V30 23 1 11 47
M  V30 24 2 12 13
M  V30 25 1 12 17
M  V30 26 1 13 14
M  V30 27 2 14 15
M  V30 28 1 14 19
M  V30 29 1 15 16
M  V30 30 2 16 17
M  V30 31 1 16 48
M  V30 32 1 17 18
M  V30 33 1 19 20
M  V30 34 1 19 49
M  V30 35 2 20 21
M  V30 36 1 20 25
M  V30 37 1 21 22
M  V30 38 1 21 50
M  V30 39 2 22 23
M  V30 40 1 22 51
M  V30 41 1 23 24
M  V30 42 1 23 28
M  V30 43 2 24 25
M  V30 44 1 24 52
M  V30 45 1 25 26
M  V30 46 1 26 27
M  V30 47 1 27 53
M  V30 48 1 27 54
M  V30 49 1 27 55
M  V30 50 1 28 29
M  V30 51 1 28 36
M  V30 52 1 29 30
M  V30 53 1 29 56
M  V30 54 1 29 57
M  V30 55 1 30 31
M  V30 56 1 30 58
M  V30 57 1 30 59
M  V30 58 1 31 32
M  V30 59 1 31 35
M  V30 60 1 31 60
M  V30 61 1 32 33
M  V30 62 1 32 34
M  V30 63 1 32 71
M  V30 64 1 33 61
M  V30 65 1 33 62
M  V30 66 1 33 63
M  V30 67 1 34 64
M  V30 68 1 34 65
M  V30 69 1 34 66
M  V30 70 1 35 36
M  V30 71 1 35 67
M  V30 72 1 35 68
M  V30 73 1 36 69
M  V30 74 1 36 70
M  V30 END BOND
M  V30 END CTAB
M  END
> <s_m_entry_id>
1534

> <s_m_entry_name>
result.861

> <s_m_Source_Path>
D:\OneDrive - zju.edu.cn\DOC\A-Finished\LCK_VS\Planet\LCK-8617

> <s_m_Source_File>
glide-dock_SP_top1262_2_pv.maegz

> <i_m_Source_File_Index>
1534

> <PLANET_affinity>
9.584

> <i_lp_mmshare_version>
54117

> <i_f3d_flags>
0

> <s_epik_input>
W0NIM11QKD1PKShbQ0gzXSljMVtjSF1bY0hdW2NIXVtjSF1jMVtOSF1jMm5jKG5bY0hdYzJDbClbTkhdYzNbY0hdW2NIXWMoW2NIXWMzT1tDSDNdKU40W0NIMl1bQ0gyXVtDSF0oTihbQ0gzXSlbQ0gzXSlbQ0gyXVtDSDJdNA==

> <s_epik_cmdline>
J2VwaWtfcHl0aG9uJywgJy1waCcsICc3LjAnLCAnLXRuJywgJzgnLCAnLW1hJywgJzUwMCcsICctaW1hZScsICc8aW5maWxlLm1hZT4nLCAnLW9tYWUnLCAnPG91dGZpbGUubWFlPic=

> <r_epik_Ionization_Penalty>
  0.0082

> <r_epik_Ionization_Penalty_Charging>
  0.0013

> <r_epik_Ionization_Penalty_Neutral>
  0.0069

> <r_epik_State_Penalty>
  0.0049

> <r_epik_Charging_Adjusted_Penalty>
0.00621004

> <i_epik_Tot_Q>
1

> <i_epik_Tot_abs_Q>
1

> <s_lp_Force_Field>
S-OPLS

> <r_lp_Energy>
65.945

> <b_lp_Chiralities_Consistent>
1

> <s_lp_Variant>
CP(C)(C1=CC=CC=C1NC2=NC(NC3=CC=C(N4CCC(N(C)C)CC4)C=C3OC)=NC=C2Cl)=O-1

> <s_i_glide_gridfile>
glide-grid_1

> <i_i_glide_lignum>
319

> <i_i_glide_rotatable_bonds>
8

> <r_i_docking_score>
-7.23290959309236

> <r_i_glide_ligand_efficiency>
-0.200914155363677

> <r_i_glide_ligand_efficiency_sa>
-0.663403923491532

> <r_i_glide_ligand_efficiency_ln>
-1.57802546257803

> <r_i_glide_gscore>
-7.23780959309236

> <r_i_glide_lipo>
-3.74547808815725

> <r_i_glide_hbond>
0

> <r_i_glide_metal>
0

> <r_i_glide_rewards>
-0.666825944175679

> <r_i_glide_evdw>
-48.8801612854004

> <r_i_glide_ecoul>
-4.98897552490234

> <r_i_glide_erotb>
0.366848832245946

> <r_i_glide_esite>
0

> <r_i_glide_emodel>
-76.167076484302

> <r_i_glide_energy>
-53.8691368103027

> <r_i_glide_einternal>
11.4674940109253

> <i_i_glide_confnum>
69

> <i_i_glide_posenum>
145

> <r_i_glide_eff_state_penalty>
0.0049

> <r_lp_tautomer_probability>
1

> <s_m_subgroup_title>
glide-dock_SP_top1262_2_pv

> <s_m_subgroupid>
glide-dock_SP_top1262_2_pv

> <b_m_subgroup_collapsed>
0

$$$$
O=S(C1=CC=C(NC2=NC=CC(N3CCCC4=C3C=CC(O)=C4)=N2)C=C1)(NCC5CC5)=O
                    3D
 Schrodinger Suite 2021-3.
  0  0  0     0  0            999 V3000
M  V30 BEGIN CTAB
M  V30 COUNTS 57 61 0 0 0
M  V30 BEGIN ATOM
M  V30 1 C  32.2535 40.8266 80.0442 0
M  V30 2 C  33.7359 41.1585 80.1225 0
M  V30 3 C  33.2836 39.7476 79.8255 0
M  V30 4 C  33.4474 38.5932 80.8349 0
M  V30 5 N  33.3173 39.0141 82.2453 0 CFG=2
M  V30 6 S  33.0847 37.8145 83.5034 0
M  V30 7 O  34.0177 36.7102 83.2471 0
M  V30 8 O  33.0831 38.5240 84.7868 0
M  V30 9 C  31.4268 37.1999 83.2347 0
M  V30 10 C  31.2214 36.0760 82.4347 0
M  V30 11 C  29.9261 35.6288 82.1986 0
M  V30 12 C  28.8329 36.2848 82.7648 0
M  V30 13 C  29.0491 37.4046 83.5801 0
M  V30 14 C  30.3421 37.8626 83.8093 0
M  V30 15 N  27.5628 35.7729 82.4436 0
M  V30 16 C  26.2759 35.9582 82.9601 0
M  V30 17 N  25.3181 35.1497 82.4450 0
M  V30 18 C  24.0938 35.2092 83.0258 0
M  V30 19 C  23.8171 36.0702 84.0915 0
M  V30 20 C  24.8377 36.9354 84.5235 0
M  V30 21 N  26.0718 36.8543 83.9532 0
M  V30 22 N  24.6764 37.9226 85.5143 0
M  V30 23 C  25.8218 38.1102 86.4419 0
M  V30 24 C  25.9152 39.5191 87.0282 0
M  V30 25 C  24.6391 39.8074 87.8036 0
M  V30 26 C  23.5000 38.6725 85.7931 0
M  V30 27 C  23.4385 39.5737 86.8983 0
M  V30 28 C  22.3713 38.6192 84.9505 0
M  V30 29 C  21.2055 39.3266 85.2252 0
M  V30 30 C  21.1470 40.1559 86.3330 0
M  V30 31 O  19.9958 40.8399 86.6070 0
M  V30 32 C  22.2628 40.2920 87.1493 0
M  V30 33 H  31.6523 40.8123 80.9531 0
M  V30 34 H  31.6753 41.1594 79.1827 0
M  V30 35 H  34.1876 41.7400 79.3173 0
M  V30 36 H  34.1838 41.3799 81.0917 0
M  V30 37 H  33.4034 39.3909 78.8022 0
M  V30 38 H  32.7163 37.8094 80.6309 0
M  V30 39 H  34.4252 38.1250 80.7145 0
M  V30 40 H  32.9497 39.9523 82.4229 0
M  V30 41 H  32.0539 35.5562 81.9828 0
M  V30 42 H  29.7816 34.7629 81.5664 0
M  V30 43 H  28.2338 37.9556 84.0156 0
M  V30 44 H  30.4966 38.7372 84.4262 0
M  V30 45 H  27.5766 35.1753 81.6210 0
M  V30 46 H  23.3372 34.5390 82.6407 0
M  V30 47 H  22.8481 36.0464 84.5622 0
M  V30 48 H  25.6846 37.3869 87.2459 0
M  V30 49 H  26.7897 37.8690 86.0030 0
M  V30 50 H  26.7821 39.5966 87.6861 0
M  V30 51 H  26.0690 40.2518 86.2342 0
M  V30 52 H  24.5820 39.1568 88.6727 0
M  V30 53 H  24.6523 40.8307 88.1819 0
M  V30 54 H  22.3693 38.0475 84.0426 0
M  V30 55 H  20.3538 39.2450 84.5651 0
M  V30 56 H  20.1303 41.6731 87.0676 0
M  V30 57 H  22.2190 40.9640 87.9944 0
M  V30 END ATOM
M  V30 BEGIN BOND
M  V30 1 1 1 2
M  V30 2 1 1 3
M  V30 3 1 1 33
M  V30 4 1 1 34
M  V30 5 1 2 3
M  V30 6 1 2 35
M  V30 7 1 2 36
M  V30 8 1 3 4
M  V30 9 1 3 37
M  V30 10 1 4 5
M  V30 11 1 4 38
M  V30 12 1 4 39
M  V30 13 1 5 6
M  V30 14 1 5 40
M  V30 15 2 6 7
M  V30 16 2 6 8
M  V30 17 1 6 9
M  V30 18 2 9 10
M  V30 19 1 9 14
M  V30 20 1 10 11
M  V30 21 1 10 41
M  V30 22 2 11 12
M  V30 23 1 11 42
M  V30 24 1 12 13
M  V30 25 1 12 15
M  V30 26 2 13 14
M  V30 27 1 13 43
M  V30 28 1 14 44
M  V30 29 1 15 16
M  V30 30 1 15 45
M  V30 31 2 16 17
M  V30 32 1 16 21
M  V30 33 1 17 18
M  V30 34 2 18 19
M  V30 35 1 18 46
M  V30 36 1 19 20
M  V30 37 1 19 47
M  V30 38 2 20 21
M  V30 39 1 20 22
M  V30 40 1 22 23
M  V30 41 1 22 26
M  V30 42 1 23 24
M  V30 43 1 23 48
M  V30 44 1 23 49
M  V30 45 1 24 25
M  V30 46 1 24 50
M  V30 47 1 24 51
M  V30 48 1 25 27
M  V30 49 1 25 52
M  V30 50 1 25 53
M  V30 51 2 26 27
M  V30 52 1 26 28
M  V30 53 1 27 32
M  V30 54 2 28 29
M  V30 55 1 28 54
M  V30 56 1 29 30
M  V30 57 1 29 55
M  V30 58 1 30 31
M  V30 59 2 30 32
M  V30 60 1 31 56
M  V30 61 1 32 57
M  V30 END BOND
M  V30 END CTAB
M  END
> <s_m_entry_id>
1541

> <s_m_entry_name>
result.7902

> <s_m_Source_Path>
D:\OneDrive - zju.edu.cn\DOC\A-Finished\LCK_VS\Planet\LCK-8617

> <s_m_Source_File>
glide-dock_SP_top1262_2_pv.maegz

> <i_m_Source_File_Index>
1541

> <PLANET_affinity>
8.059

> <i_lp_mmshare_version>
54117

> <i_f3d_flags>
0

> <s_epik_input>
W0NIMl0xW0NIMl1bQ0hdMVtDSDJdW05IXVMoPU8pKD1PKWMyW2NIXVtjSF1jKFtjSF1bY0hdMilbTkhdYzNuW2NIXVtjSF1jKG4zKU40W0NIMl1bQ0gyXVtDSDJdYyhjNDUpW2NIXWMoW09IXSlbY0hdW2NIXTU=

> <s_epik_cmdline>
J2VwaWtfcHl0aG9uJywgJy1waCcsICc3LjAnLCAnLXRuJywgJzgnLCAnLW1hJywgJzUwMCcsICctaW1hZScsICc8aW5maWxlLm1hZT4nLCAnLW9tYWUnLCAnPG91dGZpbGUubWFlPic=

> <r_epik_Ionization_Penalty>
  0.0138

> <r_epik_Ionization_Penalty_Charging>
  0.0000

> <r_epik_Ionization_Penalty_Neutral>
  0.0138

> <r_epik_State_Penalty>
  0.0101

> <r_epik_Charging_Adjusted_Penalty>
0.0101424

> <i_epik_Tot_Q>
0

> <i_epik_Tot_abs_Q>
0

> <s_lp_Force_Field>
S-OPLS

> <r_lp_Energy>
47.843

> <b_lp_Chiralities_Consistent>
1

> <s_lp_Variant>
O=S(C1=CC=C(NC2=NC=CC(N3CCCC4=C3C=CC(O)=C4)=N2)C=C1)(NCC5CC5)=O-1

> <s_i_glide_gridfile>
glide-grid_1

> <i_i_glide_lignum>
1236

> <i_i_glide_rotatable_bonds>
8

> <r_i_docking_score>
-7.23052298124477

> <r_i_glide_ligand_efficiency>
-0.225953843163899

> <r_i_glide_ligand_efficiency_sa>
-0.717358735840536

> <r_i_glide_ligand_efficiency_ln>
-1.6191111921132

> <r_i_glide_gscore>
-7.24062298124477

> <r_i_glide_lipo>
-2.4290053287059

> <r_i_glide_hbond>
-0.579243968587476

> <r_i_glide_metal>
0

> <r_i_glide_rewards>
-1.72308999475036

> <r_i_glide_evdw>
-42.1043968200684

> <r_i_glide_ecoul>
-5.22003650665283

> <r_i_glide_erotb>
0.41317887433515

> <r_i_glide_esite>
-0.0342372465348472

> <r_i_glide_emodel>
-64.8953652605694

> <r_i_glide_energy>
-47.3244333267212

> <r_i_glide_einternal>
7.89468431472778

> <i_i_glide_confnum>
122

> <i_i_glide_posenum>
22

> <r_i_glide_eff_state_penalty>
0.0101

> <r_lp_tautomer_probability>
1

> <s_m_subgroup_title>
glide-dock_SP_top1262_2_pv

> <s_m_subgroupid>
glide-dock_SP_top1262_2_pv

> <b_m_subgroup_collapsed>
0

$$$$
CC(N1)=C(C(NC2=CC=C(NN=C3)C3=C2)=O)C(C4=CC(C(NCC5=CC=CC=N5)=O)=C(F)C=C4)NC1=O
                    3D
 Schrodinger Suite 2021-3.
  0  0  0     0  0            999 V3000
M  V30 BEGIN CTAB
M  V30 COUNTS 59 63 0 0 0
M  V30 BEGIN ATOM
M  V30 1 N  34.0934 41.1338 86.9589 0
M  V30 2 N  34.7597 40.0810 87.4731 0
M  V30 3 C  34.0656 39.0128 87.1731 0
M  V30 4 C  32.8892 39.3421 86.4336 0
M  V30 5 C  32.9359 40.7508 86.3098 0
M  V30 6 C  31.8194 38.6348 85.8670 0
M  V30 7 C  30.8177 39.3433 85.1970 0
M  V30 8 C  30.8884 40.7432 85.0963 0
M  V30 9 C  31.9462 41.4755 85.6394 0
M  V30 10 N  29.7773 38.5595 84.6695 0
M  V30 11 C  28.8286 38.8774 83.7602 0
M  V30 12 O  28.6970 39.9865 83.2440 0
M  V30 13 C  27.9164 37.7861 83.4332 0
M  V30 14 C  28.3065 36.5055 83.2017 0
M  V30 15 C  29.7437 35.9969 83.1003 0
M  V30 16 C  26.4221 38.1542 83.2486 0 CFG=1
M  V30 17 N  25.6959 37.0151 82.6178 0
M  V30 18 C  26.1006 35.7233 82.5950 0
M  V30 19 O  25.3196 34.7890 82.4455 0
M  V30 20 N  27.4142 35.5432 82.8431 0
M  V30 21 C  25.6902 38.8141 84.4337 0
M  V30 22 C  24.7483 38.1046 85.1918 0
M  V30 23 C  23.9177 38.7504 86.1282 0
M  V30 24 C  24.1094 40.1278 86.3493 0
M  V30 25 F  23.3579 40.8205 87.2384 0
M  V30 26 C  25.0686 40.8322 85.6285 0
M  V30 27 C  25.8335 40.1872 84.6629 0
M  V30 28 C  22.8085 38.0034 86.8434 0
M  V30 29 O  22.2704 38.4582 87.8547 0
M  V30 30 N  22.4328 36.8245 86.3103 0
M  V30 31 C  21.2536 36.0708 86.7468 0
M  V30 32 C  19.9359 36.7581 86.3909 0
M  V30 33 C  18.9709 37.0163 87.3697 0
M  V30 34 C  17.8242 37.7233 87.0064 0
M  V30 35 C  17.6710 38.1536 85.6869 0
M  V30 36 C  18.6689 37.8435 84.7614 0
M  V30 37 N  19.7896 37.1562 85.0960 0
M  V30 38 H  34.4551 42.0695 87.0691 0
M  V30 39 H  34.3985 38.0310 87.4798 0
M  V30 40 H  31.7809 37.5597 85.9558 0
M  V30 41 H  30.1190 41.3096 84.5935 0
M  V30 42 H  31.9851 42.5518 85.5346 0
M  V30 43 H  29.7747 37.6033 84.9794 0
M  V30 44 H  30.0535 35.5566 84.0435 0
M  V30 45 H  29.8564 35.2426 82.3170 0
M  V30 46 H  30.4489 36.7880 82.8487 0
M  V30 47 H  26.3899 38.9327 82.4844 0
M  V30 48 H  24.7306 37.1649 82.3679 0
M  V30 49 H  27.7402 34.6071 82.6604 0
M  V30 50 H  24.6344 37.0476 85.0003 0
M  V30 51 H  25.1920 41.8920 85.7944 0
M  V30 52 H  26.5180 40.7780 84.0734 0
M  V30 53 H  22.8425 36.5462 85.4352 0
M  V30 54 H  21.3139 35.8790 87.8226 0
M  V30 55 H  21.2736 35.0938 86.2612 0
M  V30 56 H  19.1137 36.6996 88.3916 0
M  V30 57 H  17.0662 37.9505 87.7430 0
M  V30 58 H  16.7901 38.7085 85.3981 0
M  V30 59 H  18.5819 38.1450 83.7283 0
M  V30 END ATOM
M  V30 BEGIN BOND
M  V30 1 1 1 2
M  V30 2 1 1 5
M  V30 3 1 1 38
M  V30 4 2 2 3
M  V30 5 1 3 4
M  V30 6 1 3 39
M  V30 7 2 4 5
M  V30 8 1 4 6
M  V30 9 1 5 9
M  V30 10 2 6 7
M  V30 11 1 6 40
M  V30 12 1 7 8
M  V30 13 1 7 10
M  V30 14 2 8 9
M  V30 15 1 8 41
M  V30 16 1 9 42
M  V30 17 1 10 11
M  V30 18 1 10 43
M  V30 19 2 11 12
M  V30 20 1 11 13
M  V30 21 2 13 14
M  V30 22 1 13 16
M  V30 23 1 14 15
M  V30 24 1 14 20
M  V30 25 1 15 44
M  V30 26 1 15 45
M  V30 27 1 15 46
M  V30 28 1 16 17
M  V30 29 1 16 21
M  V30 30 1 16 47
M  V30 31 1 17 18
M  V30 32 1 17 48
M  V30 33 2 18 19
M  V30 34 1 18 20
M  V30 35 1 20 49
M  V30 36 2 21 22
M  V30 37 1 21 27
M  V30 38 1 22 23
M  V30 39 1 22 50
M  V30 40 2 23 24
M  V30 41 1 23 28
M  V30 42 1 24 25
M  V30 43 1 24 26
M  V30 44 2 26 27
M  V30 45 1 26 51
M  V30 46 1 27 52
M  V30 47 2 28 29
M  V30 48 1 28 30
M  V30 49 1 30 31
M  V30 50 1 30 53
M  V30 51 1 31 32
M  V30 52 1 31 54
M  V30 53 1 31 55
M  V30 54 2 32 33
M  V30 55 1 32 37
M  V30 56 1 33 34
M  V30 57 1 33 56
M  V30 58 2 34 35
M  V30 59 1 34 57
M  V30 60 1 35 36
M  V30 61 1 35 58
M  V30 62 2 36 37
M  V30 63 1 36 59
M  V30 END BOND
M  V30 END CTAB
M  END
> <s_m_entry_id>
1543

> <s_m_entry_name>
result.2030

> <s_m_Source_Path>
D:\OneDrive - zju.edu.cn\DOC\A-Finished\LCK_VS\Planet\LCK-8617

> <s_m_Source_File>
glide-dock_SP_top1262_2_pv.maegz

> <i_m_Source_File_Index>
1543

> <PLANET_affinity>
8.734

> <i_lp_mmshare_version>
54117

> <i_f3d_flags>
0

> <s_epik_input>
W2NIXTFuW25IXWMoYzEyKVtjSF1bY0hdYyhbY0hdMilbTkhdQyg9TylDMz1DKFtDSDNdKVtOSF1DKD1PKVtOSF1bQ0BIXTNjNFtjSF1jKGMoRilbY0hdW2NIXTQpQyg9TylbTkhdW0NIMl1jNVtjSF1bY0hdW2NIXVtjSF1uNQ==

> <s_epik_cmdline>
J2VwaWtfcHl0aG9uJywgJy1waCcsICc3LjAnLCAnLXRuJywgJzgnLCAnLW1hJywgJzUwMCcsICctaW1hZScsICc8aW5maWxlLm1hZT4nLCAnLW9tYWUnLCAnPG91dGZpbGUubWFlPic=

> <r_epik_Ionization_Penalty>
  0.0088

> <r_epik_Ionization_Penalty_Charging>
  0.0000

> <r_epik_Ionization_Penalty_Neutral>
  0.0088

> <r_epik_State_Penalty>
  0.0156

> <r_epik_Charging_Adjusted_Penalty>
0.0155965

> <i_epik_Tot_Q>
0

> <i_epik_Tot_abs_Q>
0

> <s_lp_Force_Field>
S-OPLS

> <r_lp_Energy>
65.3995

> <b_lp_Chiralities_Consistent>
1

> <s_lp_Variant>
CC(N1)=C(C(NC2=CC=C(NN=C3)C3=C2)=O)C(C4=CC(C(NCC5=CC=CC=N5)=O)=C(F)C=C4)NC1=O-1

> <s_i_glide_gridfile>
glide-grid_1

> <i_i_glide_lignum>
641

> <i_i_glide_rotatable_bonds>
8

> <r_i_docking_score>
-7.22991111141425

> <r_i_glide_ligand_efficiency>
-0.195403003011196

> <r_i_glide_ligand_efficiency_sa>
-0.651126155727426

> <r_i_glide_ligand_efficiency_ln>
-1.56799822690144

> <r_i_glide_gscore>
-7.24551111141425

> <r_i_glide_lipo>
-2.70358561726215

> <r_i_glide_hbond>
-0.478106459940735

> <r_i_glide_metal>
0

> <r_i_glide_rewards>
-1.19420345368323

> <r_i_glide_evdw>
-48.4158592224121

> <r_i_glide_ecoul>
-6.79364633560181

> <r_i_glide_erotb>
0.572723771701763

> <r_i_glide_esite>
-0.00249944076901579

> <r_i_glide_emodel>
-77.0655465186171

> <r_i_glide_energy>
-55.2095055580139

> <r_i_glide_einternal>
7.68468236923218

> <i_i_glide_confnum>
212

> <i_i_glide_posenum>
260

> <r_i_glide_eff_state_penalty>
0.0156

> <r_lp_tautomer_probability>
0.980392

> <s_m_subgroup_title>
glide-dock_SP_top1262_2_pv

> <s_m_subgroupid>
glide-dock_SP_top1262_2_pv

> <b_m_subgroup_collapsed>
0

$$$$
O[C@@H]([C@H]([C@H](N1C=NC2=C1N=CN=C2NC(C3=CC=CC=C3)=O)O4)O)[C@H]4COC(C5=CC=C...
                    3D
 Schrodinger Suite 2021-3.
  0  0  0     0  0            999 V3000
M  V30 BEGIN CTAB
M  V30 COUNTS 85 91 0 0 0
M  V30 BEGIN ATOM
M  V30 1 C  25.6057 40.6332 92.9563 0
M  V30 2 O  26.2842 40.3561 91.7359 0
M  V30 3 C  25.5783 40.3814 90.5496 0
M  V30 4 C  24.2410 40.7875 90.4359 0
M  V30 5 C  23.6025 40.7569 89.1996 0
M  V30 6 C  26.2555 39.9585 89.4096 0
M  V30 7 C  25.6244 39.9343 88.1756 0
M  V30 8 C  24.2868 40.3265 88.0548 0
M  V30 9 C  23.6230 40.4089 86.6596 0
M  V30 10 C  22.1493 39.9185 86.5404 0
M  V30 11 C  21.3904 40.3146 85.4311 0
M  V30 12 C  20.0830 39.8731 85.2745 0
M  V30 13 C  19.5017 39.0203 86.2050 0
M  V30 14 O  18.1975 38.6409 85.9561 0
M  V30 15 C  17.5099 37.8457 86.9173 0
M  V30 16 C  20.2592 38.5982 87.3062 0
M  V30 17 C  21.5691 39.0464 87.4741 0
M  V30 18 C  23.7736 41.9033 86.2813 0
M  V30 19 C  22.8277 42.8425 86.7243 0
M  V30 20 C  22.9865 44.1938 86.4435 0
M  V30 21 C  24.0847 44.6161 85.7007 0
M  V30 22 C  25.0279 43.6993 85.2443 0
M  V30 23 C  24.8695 42.3463 85.5262 0
M  V30 24 O  24.3820 39.6298 85.7041 0
M  V30 25 C  24.3832 38.1927 85.7687 0
M  V30 26 C  24.9480 37.6638 84.4428 0 CFG=1
M  V30 27 O  26.3554 37.7807 84.3585 0
M  V30 28 C  26.7919 36.9765 83.3051 0 CFG=2
M  V30 29 C  25.9472 35.6980 83.3633 0 CFG=2
M  V30 30 O  25.6831 35.2325 82.0438 0
M  V30 31 C  24.7324 36.1666 84.1887 0 CFG=2
M  V30 32 O  23.4742 35.9080 83.5873 0
M  V30 33 N  28.2323 36.7789 83.3414 0
M  V30 34 C  28.9687 35.8260 82.6564 0
M  V30 35 N  30.2634 35.8894 82.8251 0
M  V30 36 C  29.1878 37.5556 83.9850 0
M  V30 37 C  30.4322 36.9667 83.6495 0
M  V30 38 N  29.0373 38.6359 84.7650 0
M  V30 39 C  30.2150 39.1249 85.2375 0
M  V30 40 N  31.4655 38.6482 85.0053 0
M  V30 41 C  31.5869 37.5536 84.1981 0
M  V30 42 N  32.8289 36.9686 83.9037 0
M  V30 43 C  34.0703 37.3889 84.2311 0
M  V30 44 O  34.3195 38.4370 84.8306 0
M  V30 45 C  35.1940 36.4940 83.7647 0
M  V30 46 C  35.0218 35.1041 83.6473 0
M  V30 47 C  36.0754 34.2953 83.2329 0
M  V30 48 C  37.3089 34.8677 82.9319 0
M  V30 49 C  37.4973 36.2423 83.0440 0
M  V30 50 C  36.4462 37.0520 83.4653 0
M  V30 51 H  26.2921 40.4753 93.7864 0
M  V30 52 H  25.2610 41.6672 92.9990 0
M  V30 53 H  24.7572 39.9638 93.1110 0
M  V30 54 H  23.6854 41.1342 91.2936 0
M  V30 55 H  22.5823 41.0999 89.1301 0
M  V30 56 H  27.2823 39.6465 89.4688 0
M  V30 57 H  26.2006 39.6412 87.3104 0
M  V30 58 H  21.8154 40.9674 84.6817 0
M  V30 59 H  19.5135 40.2011 84.4241 0
M  V30 60 H  16.4809 37.6935 86.5896 0
M  V30 61 H  17.9719 36.8619 87.0229 0
M  V30 62 H  17.4767 38.3318 87.8958 0
M  V30 63 H  19.8488 37.9227 88.0424 0
M  V30 64 H  22.1345 38.6836 88.3180 0
M  V30 65 H  21.9651 42.5349 87.2973 0
M  V30 66 H  22.2445 44.9081 86.7743 0
M  V30 67 H  24.1943 45.6624 85.4587 0
M  V30 68 H  25.8689 44.0348 84.6561 0
M  V30 69 H  25.6132 41.6490 85.1710 0
M  V30 70 H  23.3694 37.8076 85.8533 0
M  V30 71 H  24.9426 37.8035 86.6182 0
M  V30 72 H  24.5134 38.2571 83.6447 0
M  V30 73 H  26.6076 37.5185 82.3752 0
M  V30 74 H  26.4819 34.9357 83.9310 0
M  V30 75 H  26.4934 35.2632 81.5207 0
M  V30 76 H  24.7713 35.6421 85.1451 0
M  V30 77 H  23.5699 35.1434 83.0102 0
M  V30 78 H  28.4721 35.0892 82.0429 0
M  V30 79 H  30.1504 39.9949 85.8779 0
M  V30 80 H  32.7697 36.1253 83.3561 0
M  V30 81 H  34.0852 34.6265 83.9038 0
M  V30 82 H  35.9430 33.2261 83.1629 0
M  V30 83 H  38.1275 34.2383 82.6169 0
M  V30 84 H  38.4579 36.6778 82.8120 0
M  V30 85 H  36.6091 38.1177 83.5529 0
M  V30 END ATOM
M  V30 BEGIN BOND
M  V30 1 1 1 2
M  V30 2 1 1 51
M  V30 3 1 1 52
M  V30 4 1 1 53
M  V30 5 1 2 3
M  V30 6 2 3 4
M  V30 7 1 3 6
M  V30 8 1 4 5
M  V30 9 1 4 54
M  V30 10 2 5 8
M  V30 11 1 5 55
M  V30 12 2 6 7
M  V30 13 1 6 56
M  V30 14 1 7 8
M  V30 15 1 7 57
M  V30 16 1 8 9
M  V30 17 1 9 10
M  V30 18 1 9 18
M  V30 19 1 9 24
M  V30 20 2 10 11
M  V30 21 1 10 17
M  V30 22 1 11 12
M  V30 23 1 11 58
M  V30 24 2 12 13
M  V30 25 1 12 59
M  V30 26 1 13 14
M  V30 27 1 13 16
M  V30 28 1 14 15
M  V30 29 1 15 60
M  V30 30 1 15 61
M  V30 31 1 15 62
M  V30 32 2 16 17
M  V30 33 1 16 63
M  V30 34 1 17 64
M  V30 35 2 18 19
M  V30 36 1 18 23
M  V30 37 1 19 20
M  V30 38 1 19 65
M  V30 39 2 20 21
M  V30 40 1 20 66
M  V30 41 1 21 22
M  V30 42 1 21 67
M  V30 43 2 22 23
M  V30 44 1 22 68
M  V30 45 1 23 69
M  V30 46 1 24 25
M  V30 47 1 25 26
M  V30 48 1 25 70
M  V30 49 1 25 71
M  V30 50 1 26 27
M  V30 51 1 26 31
M  V30 52 1 26 72
M  V30 53 1 27 28
M  V30 54 1 28 29
M  V30 55 1 28 33
M  V30 56 1 28 73
M  V30 57 1 29 30
M  V30 58 1 29 31
M  V30 59 1 29 74
M  V30 60 1 30 75
M  V30 61 1 31 32
M  V30 62 1 31 76
M  V30 63 1 32 77
M  V30 64 1 33 34
M  V30 65 1 33 36
M  V30 66 2 34 35
M  V30 67 1 34 78
M  V30 68 1 35 37
M  V30 69 2 36 37
M  V30 70 1 36 38
M  V30 71 1 37 41
M  V30 72 2 38 39
M  V30 73 1 39 40
M  V30 74 1 39 79
M  V30 75 2 40 41
M  V30 76 1 41 42
M  V30 77 1 42 43
M  V30 78 1 42 80
M  V30 79 2 43 44
M  V30 80 1 43 45
M  V30 81 2 45 46
M  V30 82 1 45 50
M  V30 83 1 46 47
M  V30 84 1 46 81
M  V30 85 2 47 48
M  V30 86 1 47 82
M  V30 87 1 48 49
M  V30 88 1 48 83
M  V30 89 2 49 50
M  V30 90 1 49 84
M  V30 91 1 50 85
M  V30 END BOND
M  V30 END CTAB
M  END
> <s_m_entry_id>
1544

> <s_m_entry_name>
result.4632

> <s_m_Source_Path>
D:\OneDrive - zju.edu.cn\DOC\A-Finished\LCK_VS\Planet\LCK-8617

> <s_m_Source_File>
glide-dock_SP_top1262_2_pv.maegz

> <i_m_Source_File_Index>
1544

> <PLANET_affinity>
7.926

> <i_lp_mmshare_version>
54117

> <i_f3d_flags>
0

> <s_epik_input>
W0NIM11PYzFbY0hdW2NIXWMoW2NIXVtjSF0xKUMoYzJbY0hdW2NIXWMoT1tDSDNdKVtjSF1bY0hdMikoYzNbY0hdW2NIXVtjSF1bY0hdW2NIXTMpT1tDSDJdW0NASF00T1tDQEhdKFtDQEhdKFtPSF0pW0NAQEhdNFtPSF0pbjVbY0hdbmMoYzU2KWMobltjSF1uNilbTkhdQyg9TyljN1tjSF1bY0hdW2NIXVtjSF1bY0hdNw==

> <s_epik_cmdline>
J2VwaWtfcHl0aG9uJywgJy1waCcsICc3LjAnLCAnLXRuJywgJzgnLCAnLW1hJywgJzUwMCcsICctaW1hZScsICc8aW5maWxlLm1hZT4nLCAnLW9tYWUnLCAnPG91dGZpbGUubWFlPic=

> <r_epik_Ionization_Penalty>
  0.0017

> <r_epik_Ionization_Penalty_Charging>
  0.0000

> <r_epik_Ionization_Penalty_Neutral>
  0.0017

> <r_epik_State_Penalty>
  0.0055

> <r_epik_Charging_Adjusted_Penalty>
0.00546505

> <i_epik_Tot_Q>
0

> <i_epik_Tot_abs_Q>
0

> <s_epik_Chemistry_Notes>
This compound contains an acetal/aminal-like group ( X-CH(R)-Y where X, Y are N, S, or O) that may be acid/base labile, releasing an aldehyde.

> <s_lp_Force_Field>
S-OPLS

> <r_lp_Energy>
74.4661

> <b_lp_Chiralities_Consistent>
1

> <s_lp_Variant>
O[C@@H]([C@H]([C@H](N1C=NC2=C1N=CN=C2NC(C3=CC=CC=C3)=O)O4)O)[C@H]4COC(C5=CC=C...-1

> <s_i_glide_gridfile>
glide-grid_1

> <i_i_glide_lignum>
1378

> <i_i_glide_rotatable_bonds>
14

> <r_i_docking_score>
-7.22953255160746

> <r_i_glide_ligand_efficiency>
-0.144590651032149

> <r_i_glide_ligand_efficiency_sa>
-0.532676512116744

> <r_i_glide_ligand_efficiency_ln>
-1.47180347966984

> <r_i_glide_gscore>
-7.23503255160746

> <r_i_glide_lipo>
-2.52526358981867

> <r_i_glide_hbond>
0

> <r_i_glide_metal>
0

> <r_i_glide_rewards>
-1.72766818931385

> <r_i_glide_evdw>
-51.5979499816895

> <r_i_glide_ecoul>
-4.72183227539062

> <r_i_glide_erotb>
0.306717813617659

> <r_i_glide_esite>
-0.000646245699537172

> <r_i_glide_emodel>
-74.820968369861

> <r_i_glide_energy>
-56.3197822570801

> <r_i_glide_einternal>
9.05901622772217

> <i_i_glide_confnum>
351

> <i_i_glide_posenum>
199

> <r_i_glide_eff_state_penalty>
0.0055

> <r_lp_tautomer_probability>
1

> <s_m_subgroup_title>
glide-dock_SP_top1262_2_pv

> <s_m_subgroupid>
glide-dock_SP_top1262_2_pv

> <b_m_subgroup_collapsed>
0

$$$$
O=C1C2=C(N=C(OC3=CC=CC(OC(F)(F)F)=C3)N2CC4=CC=C(Cl)C=C4)N(C)C(N1CCCO)=O
                    3D
 Schrodinger Suite 2021-3.
  0  0  0     0  0            999 V3000
M  V30 BEGIN CTAB
M  V30 COUNTS 56 59 0 0 0
M  V30 BEGIN ATOM
M  V30 1 O  16.2729 39.5566 85.2436 0
M  V30 2 C  17.0832 38.4444 85.0807 0
M  V30 3 C  17.0572 37.6284 86.3924 0
M  V30 4 C  18.0911 38.0824 87.4497 0
M  V30 5 N  19.4952 37.7320 87.0864 0
M  V30 6 C  20.2198 38.7354 86.4662 0
M  V30 7 O  19.7934 39.8722 86.2615 0
M  V30 8 C  19.8951 36.4529 87.4558 0
M  V30 9 O  19.1515 35.6610 88.0436 0
M  V30 10 N  21.1933 36.1273 87.1377 0
M  V30 11 C  21.6923 34.7928 87.5097 0
M  V30 12 C  22.0094 36.9959 86.4216 0
M  V30 13 C  21.5123 38.2370 86.0640 0
M  V30 14 N  23.2527 36.8105 85.9997 0
M  V30 15 C  23.5345 37.9133 85.3346 0
M  V30 16 O  24.7669 38.2140 84.8040 0
M  V30 17 C  25.5744 37.2885 84.1763 0
M  V30 18 C  25.1052 36.1191 83.5636 0
M  V30 19 C  25.9939 35.2694 82.9060 0
M  V30 20 C  27.3517 35.5856 82.8435 0
M  V30 21 C  27.8389 36.7565 83.4448 0
M  V30 22 C  26.9348 37.5925 84.1014 0
M  V30 23 O  29.1627 37.1551 83.4569 0
M  V30 24 C  30.1690 36.3959 82.7848 0
M  V30 25 F  30.2685 35.1567 83.2435 0
M  V30 26 F  29.9703 36.3567 81.4779 0
M  V30 27 F  31.3339 37.0030 83.0001 0
M  V30 28 N  22.5024 38.8257 85.3083 0
M  V30 29 C  22.4788 40.1126 84.6120 0
M  V30 30 C  23.0360 41.2820 85.4107 0
M  V30 31 C  22.1670 42.1686 86.0534 0
M  V30 32 C  22.6743 43.2678 86.7392 0
M  V30 33 C  24.0513 43.4745 86.7904 0
M  V30 34 Cl 24.6825 44.8390 87.6375 0
M  V30 35 C  24.9245 42.5883 86.1613 0
M  V30 36 C  24.4168 41.4917 85.4692 0
M  V30 37 H  16.4622 39.9514 86.1152 0
M  V30 38 H  16.6879 37.9540 84.2043 0
M  V30 39 H  18.0861 38.7404 84.7854 0
M  V30 40 H  16.0660 37.6947 86.8426 0
M  V30 41 H  17.1848 36.5724 86.1887 0
M  V30 42 H  17.9813 39.1580 87.6074 0
M  V30 43 H  17.8220 37.6639 88.4226 0
M  V30 44 H  22.7737 34.7939 87.6436 0
M  V30 45 H  21.2587 34.4263 88.4416 0
M  V30 46 H  21.4452 34.0741 86.7274 0
M  V30 47 H  24.0546 35.8702 83.5848 0
M  V30 48 H  25.6308 34.3652 82.4424 0
M  V30 49 H  28.0099 34.9091 82.3178 0
M  V30 50 H  27.2976 38.4982 84.5638 0
M  V30 51 H  23.0416 40.0062 83.6840 0
M  V30 52 H  21.4568 40.3227 84.2930 0
M  V30 53 H  21.0971 42.0262 86.0170 0
M  V30 54 H  21.9937 43.9610 87.2144 0
M  V30 55 H  25.9908 42.7564 86.2008 0
M  V30 56 H  25.0958 40.8151 84.9708 0
M  V30 END ATOM
M  V30 BEGIN BOND
M  V30 1 1 1 2
M  V30 2 1 1 37
M  V30 3 1 2 3
M  V30 4 1 2 38
M  V30 5 1 2 39
M  V30 6 1 3 4
M  V30 7 1 3 40
M  V30 8 1 3 41
M  V30 9 1 4 5
M  V30 10 1 4 42
M  V30 11 1 4 43
M  V30 12 1 5 6
M  V30 13 1 5 8
M  V30 14 2 6 7
M  V30 15 1 6 13
M  V30 16 2 8 9
M  V30 17 1 8 10
M  V30 18 1 10 11
M  V30 19 1 10 12
M  V30 20 1 11 44
M  V30 21 1 11 45
M  V30 22 1 11 46
M  V30 23 2 12 13
M  V30 24 1 12 14
M  V30 25 1 13 28
M  V30 26 2 14 15
M  V30 27 1 15 16
M  V30 28 1 15 28
M  V30 29 1 16 17
M  V30 30 2 17 18
M  V30 31 1 17 22
M  V30 32 1 18 19
M  V30 33 1 18 47
M  V30 34 2 19 20
M  V30 35 1 19 48
M  V30 36 1 20 21
M  V30 37 1 20 49
M  V30 38 2 21 22
M  V30 39 1 21 23
M  V30 40 1 22 50
M  V30 41 1 23 24
M  V30 42 1 24 25
M  V30 43 1 24 26
M  V30 44 1 24 27
M  V30 45 1 28 29
M  V30 46 1 29 30
M  V30 47 1 29 51
M  V30 48 1 29 52
M  V30 49 2 30 31
M  V30 50 1 30 36
M  V30 51 1 31 32
M  V30 52 1 31 53
M  V30 53 2 32 33
M  V30 54 1 32 54
M  V30 55 1 33 34
M  V30 56 1 33 35
M  V30 57 2 35 36
M  V30 58 1 35 55
M  V30 59 1 36 56
M  V30 END BOND
M  V30 END CTAB
M  END
> <s_m_entry_id>
1547

> <s_m_entry_name>
result.1407

> <s_m_Source_Path>
D:\OneDrive - zju.edu.cn\DOC\A-Finished\LCK_VS\Planet\LCK-8617

> <s_m_Source_File>
glide-dock_SP_top1262_2_pv.maegz

> <i_m_Source_File_Index>
1547

> <PLANET_affinity>
7.402

> <i_lp_mmshare_version>
54117

> <i_f3d_flags>
0

> <s_epik_input>
W09IXVtDSDJdW0NIMl1bQ0gyXW4oYyg9TyluMVtDSDNdKWMoPU8pYyhjMTIpbihbQ0gyXWMzW2NIXVtjSF1jKENsKVtjSF1bY0hdMyljKG4yKU9jNFtjSF1bY0hdW2NIXWMoW2NIXTQpT0MoRikoRilG

> <s_epik_cmdline>
J2VwaWtfcHl0aG9uJywgJy1waCcsICc3LjAnLCAnLXRuJywgJzgnLCAnLW1hJywgJzUwMCcsICctaW1hZScsICc8aW5maWxlLm1hZT4nLCAnLW9tYWUnLCAnPG91dGZpbGUubWFlPic=

> <r_epik_Ionization_Penalty>
  0.0000

> <r_epik_Ionization_Penalty_Charging>
  0.0000

> <r_epik_Ionization_Penalty_Neutral>
  0.0000

> <r_epik_State_Penalty>
  0.0000

> <r_epik_Charging_Adjusted_Penalty>
4.93682e-08

> <i_epik_Tot_Q>
0

> <i_epik_Tot_abs_Q>
0

> <s_lp_Force_Field>
S-OPLS

> <r_lp_Energy>
40.5896

> <b_lp_Chiralities_Consistent>
1

> <s_lp_Variant>
O=C1C2=C(N=C(OC3=CC=CC(OC(F)(F)F)=C3)N2CC4=CC=C(Cl)C=C4)N(C)C(N1CCCO)=O-1

> <s_i_glide_gridfile>
glide-grid_1

> <i_i_glide_lignum>
2094

> <i_i_glide_rotatable_bonds>
10

> <r_i_docking_score>
-7.22620563236149

> <r_i_glide_ligand_efficiency>
-0.200727934232264

> <r_i_glide_ligand_efficiency_sa>
-0.662789034864134

> <r_i_glide_ligand_efficiency_ln>
-1.57656283946664

> <r_i_glide_gscore>
-7.22620563236149

> <r_i_glide_lipo>
-2.5153837558005

> <r_i_glide_hbond>
-0.456

> <r_i_glide_metal>
0

> <r_i_glide_rewards>
-1.87269231826263

> <r_i_glide_evdw>
-44.6643943786621

> <r_i_glide_ecoul>
-4.80985879898071

> <r_i_glide_erotb>
0.597591737782545

> <r_i_glide_esite>
-0.0250227573006931

> <r_i_glide_emodel>
-68.594101742627

> <r_i_glide_energy>
-49.4742531776428

> <r_i_glide_einternal>
6.46201324462891

> <i_i_glide_confnum>
127

> <i_i_glide_posenum>
384

> <r_i_glide_eff_state_penalty>
0

> <r_lp_tautomer_probability>
1

> <s_m_subgroup_title>
glide-dock_SP_top1262_2_pv

> <s_m_subgroupid>
glide-dock_SP_top1262_2_pv

> <b_m_subgroup_collapsed>
0

$$$$
O=C(C1=CC(C)=NN1C)NC2=CC(NC3=CC4=C(C=C3)C(/C=C/C5=NC=CC=C5)=NN4)=CC=C2F
                    3D
 Schrodinger Suite 2021-3.
  0  0  0     0  0            999 V3000
M  V30 BEGIN CTAB
M  V30 COUNTS 57 61 0 0 0
M  V30 BEGIN ATOM
M  V30 1 C  24.3949 41.3544 93.9040 0
M  V30 2 N  25.1740 41.6275 92.6995 0
M  V30 3 N  26.4565 41.9900 92.8432 0
M  V30 4 C  26.9185 42.2066 91.6362 0
M  V30 5 C  28.3426 42.6619 91.4378 0
M  V30 6 C  25.9250 41.9726 90.6863 0
M  V30 7 C  24.7794 41.5716 91.3785 0
M  V30 8 C  23.4563 41.2725 90.8857 0
M  V30 9 O  22.4831 41.1574 91.6329 0
M  V30 10 N  23.4126 41.1514 89.5472 0
M  V30 11 C  22.2720 40.9441 88.7702 0
M  V30 12 C  22.3227 39.9206 87.8235 0
M  V30 13 C  21.2782 39.7326 86.9123 0
M  V30 14 C  20.1404 40.5335 87.0166 0
M  V30 15 C  20.0822 41.5567 87.9630 0
M  V30 16 C  21.1528 41.7896 88.8213 0
M  V30 17 F  21.0856 42.8205 89.6953 0
M  V30 18 N  21.3292 38.7551 85.9065 0
M  V30 19 C  22.4124 38.1024 85.2994 0
M  V30 20 C  22.1336 36.9368 84.5820 0
M  V30 21 C  23.7170 38.6052 85.3623 0
M  V30 22 C  24.7933 37.9386 84.7863 0
M  V30 23 C  24.5532 36.7549 84.0676 0
M  V30 24 C  23.2134 36.2880 83.9753 0
M  V30 25 C  25.3409 35.7970 83.3341 0
M  V30 26 N  24.5475 34.8791 82.8402 0
M  V30 27 N  23.2823 35.1593 83.1903 0
M  V30 28 C  26.7794 35.7401 83.1112 0
M  V30 29 C  27.6959 36.6838 83.4004 0
M  V30 30 C  29.1550 36.5861 83.2154 0
M  V30 31 N  29.8821 37.5239 83.8790 0
M  V30 32 C  31.2344 37.4812 83.7902 0
M  V30 33 C  31.9099 36.5161 83.0458 0
M  V30 34 C  31.1577 35.5574 82.3669 0
M  V30 35 C  29.7645 35.5873 82.4447 0
M  V30 36 H  23.5122 41.9937 93.9125 0
M  V30 37 H  24.0864 40.3069 93.9029 0
M  V30 38 H  24.9749 41.5570 94.8049 0
M  V30 39 H  28.5872 42.7779 90.3813 0
M  V30 40 H  28.5234 43.6228 91.9178 0
M  V30 41 H  29.0579 41.9564 91.8574 0
M  V30 42 H  26.0368 42.0991 89.6190 0
M  V30 43 H  24.2928 41.1424 89.0558 0
M  V30 44 H  23.1837 39.2710 87.8064 0
M  V30 45 H  19.3057 40.3931 86.3424 0
M  V30 46 H  19.2087 42.1932 88.0258 0
M  V30 47 H  20.4287 38.4964 85.5314 0
M  V30 48 H  21.1268 36.5577 84.5008 0
M  V30 49 H  23.9223 39.5439 85.8504 0
M  V30 50 H  25.7820 38.3551 84.8861 0
M  V30 51 H  22.5255 34.5573 82.8867 0
M  V30 52 H  27.1099 34.8064 82.6764 0
M  V30 53 H  27.3646 37.6199 83.8122 0
M  V30 54 H  31.7781 38.2410 84.3319 0
M  V30 55 H  32.9895 36.5030 82.9991 0
M  V30 56 H  31.6477 34.7946 81.7782 0
M  V30 57 H  29.1880 34.8448 81.9125 0
M  V30 END ATOM
M  V30 BEGIN BOND
M  V30 1 1 1 2
M  V30 2 1 1 36
M  V30 3 1 1 37
M  V30 4 1 1 38
M  V30 5 1 2 3
M  V30 6 1 2 7
M  V30 7 2 3 4
M  V30 8 1 4 5
M  V30 9 1 4 6
M  V30 10 1 5 39
M  V30 11 1 5 40
M  V30 12 1 5 41
M  V30 13 2 6 7
M  V30 14 1 6 42
M  V30 15 1 7 8
M  V30 16 2 8 9
M  V30 17 1 8 10
M  V30 18 1 10 11
M  V30 19 1 10 43
M  V30 20 2 11 12
M  V30 21 1 11 16
M  V30 22 1 12 13
M  V30 23 1 12 44
M  V30 24 2 13 14
M  V30 25 1 13 18
M  V30 26 1 14 15
M  V30 27 1 14 45
M  V30 28 2 15 16
M  V30 29 1 15 46
M  V30 30 1 16 17
M  V30 31 1 18 19
M  V30 32 1 18 47
M  V30 33 2 19 20
M  V30 34 1 19 21
M  V30 35 1 20 24
M  V30 36 1 20 48
M  V30 37 2 21 22
M  V30 38 1 21 49
M  V30 39 1 22 23
M  V30 40 1 22 50
M  V30 41 2 23 24
M  V30 42 1 23 25
M  V30 43 1 24 27
M  V30 44 2 25 26
M  V30 45 1 25 28
M  V30 46 1 26 27
M  V30 47 1 27 51
M  V30 48 2 28 29
M  V30 49 1 28 52
M  V30 50 1 29 30
M  V30 51 1 29 53
M  V30 52 2 30 31
M  V30 53 1 30 35
M  V30 54 1 31 32
M  V30 55 2 32 33
M  V30 56 1 32 54
M  V30 57 1 33 34
M  V30 58 1 33 55
M  V30 59 2 34 35
M  V30 60 1 34 56
M  V30 61 1 35 57
M  V30 END BOND
M  V30 END CTAB
M  END
> <s_m_entry_id>
1548

> <s_m_entry_name>
result.2151

> <s_m_Source_Path>
D:\OneDrive - zju.edu.cn\DOC\A-Finished\LCK_VS\Planet\LCK-8617

> <s_m_Source_File>
glide-dock_SP_top1262_2_pv.maegz

> <i_m_Source_File_Index>
1548

> <PLANET_affinity>
7.802

> <i_lp_mmshare_version>
54117

> <i_f3d_flags>
0

> <s_epik_input>
W0NIM11uMW5jKFtDSDNdKVtjSF1jMUMoPU8pW05IXWMyW2NIXWMoW2NIXVtjSF1jMkYpW05IXWMoW2NIXVtjSF0zKVtjSF1jKGMzNClbbkhdbmM0L1tDSF09W0NIXS9jNW5bY0hdW2NIXVtjSF1bY0hdNQ==

> <s_epik_cmdline>
J2VwaWtfcHl0aG9uJywgJy1waCcsICc3LjAnLCAnLXRuJywgJzgnLCAnLW1hJywgJzUwMCcsICctaW1hZScsICc8aW5maWxlLm1hZT4nLCAnLW9tYWUnLCAnPG91dGZpbGUubWFlPic=

> <r_epik_Ionization_Penalty>
  0.0046

> <r_epik_Ionization_Penalty_Charging>
  0.0000

> <r_epik_Ionization_Penalty_Neutral>
  0.0046

> <r_epik_State_Penalty>
  0.0032

> <r_epik_Charging_Adjusted_Penalty>
0.00324214

> <i_epik_Tot_Q>
0

> <i_epik_Tot_abs_Q>
0

> <s_lp_Force_Field>
S-OPLS

> <r_lp_Energy>
46.0736

> <b_lp_Chiralities_Consistent>
1

> <s_lp_Variant>
O=C(C1=CC(C)=NN1C)NC2=CC(NC3=CC4=C(C=C3)C(/C=C/C5=NC=CC=C5)=NN4)=CC=C2F-1

> <s_i_glide_gridfile>
glide-grid_1

> <i_i_glide_lignum>
1509

> <i_i_glide_rotatable_bonds>
7

> <r_i_docking_score>
-7.22542641989218

> <r_i_glide_ligand_efficiency>
-0.206440754854062

> <r_i_glide_ligand_efficiency_sa>
-0.675281397452738

> <r_i_glide_ligand_efficiency_ln>
-1.58614145886577

> <r_i_glide_gscore>
-7.22862641989218

> <r_i_glide_lipo>
-2.75933734281376

> <r_i_glide_hbond>
-0.30967368301854

> <r_i_glide_metal>
0

> <r_i_glide_rewards>
-1.45525094535039

> <r_i_glide_evdw>
-45.1951713562012

> <r_i_glide_ecoul>
-5.5340747833252

> <r_i_glide_erotb>
0.452500202952632

> <r_i_glide_esite>
-0.0669948663532876

> <r_i_glide_emodel>
-66.9688570286911

> <r_i_glide_energy>
-50.7292461395264

> <r_i_glide_einternal>
11.997989654541

> <i_i_glide_confnum>
194

> <i_i_glide_posenum>
256

> <r_i_glide_eff_state_penalty>
0.0032

> <r_lp_tautomer_probability>
1

> <s_m_subgroup_title>
glide-dock_SP_top1262_2_pv

> <s_m_subgroupid>
glide-dock_SP_top1262_2_pv

> <b_m_subgroup_collapsed>
0

$$$$
OCC1=CC(C2=CC=CC=C2)=CC(C3(C(C(C)=NN4)=C4OC(N)=C3C#N)C(C)C)=C1
                    3D
 Schrodinger Suite 2021-3.
  0  0  0     0  0            999 V3000
M  V30 BEGIN CTAB
M  V30 COUNTS 54 57 0 0 0
M  V30 BEGIN ATOM
M  V30 1 C  28.6761 37.8097 84.6745 0
M  V30 2 C  30.0051 37.5983 84.3140 0
M  V30 3 C  30.3083 36.7588 83.2472 0
M  V30 4 C  29.2911 36.1367 82.5336 0
M  V30 5 C  27.9644 36.3569 82.8916 0
M  V30 6 C  27.6268 37.1875 83.9786 0
M  V30 7 C  26.1895 37.4059 84.3720 0
M  V30 8 C  25.1986 36.5060 83.9643 0
M  V30 9 C  23.8453 36.7567 84.1852 0
M  V30 10 C  22.7701 35.8480 83.6032 0
M  V30 11 O  23.1917 35.1567 82.4430 0
M  V30 12 C  25.7750 38.5169 85.1305 0
M  V30 13 C  24.4248 38.7786 85.4338 0
M  V30 14 C  23.4747 37.9018 84.8921 0
M  V30 15 C  23.9977 40.0330 86.2752 0 CFG=1
M  V30 16 C  24.9090 40.2732 87.5709 0
M  V30 17 C  26.1467 41.2075 87.4727 0
M  V30 18 C  25.3354 39.0002 88.3150 0
M  V30 19 C  24.0970 41.3234 85.4006 0
M  V30 20 C  25.2779 41.4981 84.6186 0
M  V30 21 N  26.2755 41.5805 84.0436 0
M  V30 22 C  23.1892 42.3359 85.4489 0
M  V30 23 N  23.2847 43.5564 84.8435 0
M  V30 24 O  22.0222 42.3422 86.1391 0
M  V30 25 C  21.7113 41.1250 86.6724 0
M  V30 26 C  22.5009 39.9901 86.7577 0
M  V30 27 N  20.4874 40.8662 87.1949 0
M  V30 28 N  20.4083 39.6032 87.6079 0
M  V30 29 C  21.5855 39.0555 87.3373 0
M  V30 30 C  21.7426 37.5852 87.6741 0
M  V30 31 H  28.4843 38.4520 85.5198 0
M  V30 32 H  30.7984 38.0788 84.8683 0
M  V30 33 H  31.3390 36.5906 82.9699 0
M  V30 34 H  29.5294 35.4946 81.6969 0
M  V30 35 H  27.2093 35.8753 82.2904 0
M  V30 36 H  25.4667 35.6141 83.4212 0
M  V30 37 H  22.4303 35.1565 84.3725 0
M  V30 38 H  21.9155 36.4567 83.3047 0
M  V30 39 H  22.5190 34.5063 82.1894 0
M  V30 40 H  26.5149 39.2199 85.4654 0
M  V30 41 H  22.4227 38.1140 84.9940 0
M  V30 42 H  24.2757 40.8102 88.2815 0
M  V30 43 H  26.9086 40.8383 86.7895 0
M  V30 44 H  25.8763 42.2168 87.1621 0
M  V30 45 H  26.6300 41.3194 88.4441 0
M  V30 46 H  26.1082 38.4387 87.7911 0
M  V30 47 H  25.7200 39.2275 89.3099 0
M  V30 48 H  24.4829 38.3566 88.4417 0
M  V30 49 H  24.0231 43.7562 84.1811 0
M  V30 50 H  22.4822 44.1786 84.8119 0
M  V30 51 H  19.7178 41.5217 87.2435 0
M  V30 52 H  22.4828 37.4212 88.4436 0
M  V30 53 H  22.0317 36.9678 86.8286 0
M  V30 54 H  20.8173 37.1429 88.0437 0
M  V30 END ATOM
M  V30 BEGIN BOND
M  V30 1 2 1 2
M  V30 2 1 1 6
M  V30 3 1 1 31
M  V30 4 1 2 3
M  V30 5 1 2 32
M  V30 6 2 3 4
M  V30 7 1 3 33
M  V30 8 1 4 5
M  V30 9 1 4 34
M  V30 10 2 5 6
M  V30 11 1 5 35
M  V30 12 1 6 7
M  V30 13 2 7 8
M  V30 14 1 7 12
M  V30 15 1 8 9
M  V30 16 1 8 36
M  V30 17 1 9 10
M  V30 18 2 9 14
M  V30 19 1 10 11
M  V30 20 1 10 37
M  V30 21 1 10 38
M  V30 22 1 11 39
M  V30 23 2 12 13
M  V30 24 1 12 40
M  V30 25 1 13 14
M  V30 26 1 13 15
M  V30 27 1 14 41
M  V30 28 1 15 16
M  V30 29 1 15 19
M  V30 30 1 15 26
M  V30 31 1 16 17
M  V30 32 1 16 18
M  V30 33 1 16 42
M  V30 34 1 17 43
M  V30 35 1 17 44
M  V30 36 1 17 45
M  V30 37 1 18 46
M  V30 38 1 18 47
M  V30 39 1 18 48
M  V30 40 1 19 20
M  V30 41 2 19 22
M  V30 42 3 20 21
M  V30 43 1 22 23
M  V30 44 1 22 24
M  V30 45 1 23 49
M  V30 46 1 23 50
M  V30 47 1 24 25
M  V30 48 2 25 26
M  V30 49 1 25 27
M  V30 50 1 26 29
M  V30 51 1 27 28
M  V30 52 1 27 51
M  V30 53 2 28 29
M  V30 54 1 29 30
M  V30 55 1 30 52
M  V30 56 1 30 53
M  V30 57 1 30 54
M  V30 END BOND
M  V30 END CTAB
M  END
> <s_m_entry_id>
1550

> <s_m_entry_name>
result.7298

> <s_m_Source_Path>
D:\OneDrive - zju.edu.cn\DOC\A-Finished\LCK_VS\Planet\LCK-8617

> <s_m_Source_File>
glide-dock_SP_top1262_2_pv.maegz

> <i_m_Source_File_Index>
1550

> <PLANET_affinity>
7.019

> <i_lp_mmshare_version>
54117

> <i_f3d_flags>
0

> <s_epik_input>
W2NIXTFbY0hdW2NIXVtjSF1bY0hdYzEtYzJbY0hdYyhbQ0gyXVtPSF0pW2NIXWMoW2NIXTIpW0NAQF0oW0NIXShbQ0gzXSlbQ0gzXSkoQyhDI04pPUMoTzMpW05IMl0pYyhjMzQpYyhbQ0gzXSluW25IXTQ=

> <s_epik_cmdline>
J2VwaWtfcHl0aG9uJywgJy1waCcsICc3LjAnLCAnLXRuJywgJzgnLCAnLW1hJywgJzUwMCcsICctaW1hZScsICc8aW5maWxlLm1hZT4nLCAnLW9tYWUnLCAnPG91dGZpbGUubWFlPic=

> <r_epik_Ionization_Penalty>
  0.0000

> <r_epik_Ionization_Penalty_Charging>
  0.0000

> <r_epik_Ionization_Penalty_Neutral>
  0.0000

> <r_epik_State_Penalty>
  0.0000

> <r_epik_Charging_Adjusted_Penalty>
0

> <i_epik_Tot_Q>
0

> <i_epik_Tot_abs_Q>
0

> <s_lp_Force_Field>
S-OPLS

> <r_lp_Energy>
48.1804

> <b_lp_Chiralities_Consistent>
1

> <s_lp_Variant>
OCC1=CC(C2=CC=CC=C2)=CC(C3(C(C(C)=NN4)=C4OC(N)=C3C#N)C(C)C)=C1-1

> <s_i_glide_gridfile>
glide-grid_1

> <i_i_glide_lignum>
2690

> <i_i_glide_rotatable_bonds>
5

> <r_i_docking_score>
-7.22382969881962

> <r_i_glide_ligand_efficiency>
-0.240794323293987

> <r_i_glide_ligand_efficiency_sa>
-0.748203947739976

> <r_i_glide_ligand_efficiency_ln>
-1.64133281750056

> <r_i_glide_gscore>
-7.22382969881962

> <r_i_glide_lipo>
-2.43836895156148

> <r_i_glide_hbond>
-0.823017607551657

> <r_i_glide_metal>
0

> <r_i_glide_rewards>
-0.820978526111854

> <r_i_glide_evdw>
-32.2410774230957

> <r_i_glide_ecoul>
-11.9021606445312

> <r_i_glide_erotb>
0.366719094258207

> <r_i_glide_esite>
-0.110805740018356

> <r_i_glide_emodel>
-60.190318993033

> <r_i_glide_energy>
-44.143238067627

> <r_i_glide_einternal>
7.20691299438477

> <i_i_glide_confnum>
1

> <i_i_glide_posenum>
232

> <r_i_glide_eff_state_penalty>
0

> <r_lp_tautomer_probability>
1

> <s_m_subgroup_title>
glide-dock_SP_top1262_2_pv

> <s_m_subgroupid>
glide-dock_SP_top1262_2_pv

> <b_m_subgroup_collapsed>
0

$$$$
OCC1=CC(C2=CC=CC=C2)=CC([C@@]3(C(C(C)=NN4)=C4OC(N)=C3C#N)C(C)C)=C1
                    3D
 Schrodinger Suite 2021-3.
  0  0  0     0  0            999 V3000
M  V30 BEGIN CTAB
M  V30 COUNTS 54 57 0 0 0
M  V30 BEGIN ATOM
M  V30 1 C  28.6761 37.8097 84.6745 0
M  V30 2 C  30.0051 37.5983 84.3140 0
M  V30 3 C  30.3083 36.7588 83.2472 0
M  V30 4 C  29.2911 36.1367 82.5336 0
M  V30 5 C  27.9644 36.3569 82.8916 0
M  V30 6 C  27.6268 37.1875 83.9786 0
M  V30 7 C  26.1895 37.4059 84.3720 0
M  V30 8 C  25.1986 36.5060 83.9643 0
M  V30 9 C  23.8453 36.7567 84.1852 0
M  V30 10 C  22.7701 35.8480 83.6032 0
M  V30 11 O  23.1917 35.1567 82.4430 0
M  V30 12 C  25.7750 38.5169 85.1305 0
M  V30 13 C  24.4248 38.7786 85.4338 0
M  V30 14 C  23.4747 37.9018 84.8921 0
M  V30 15 C  23.9977 40.0330 86.2752 0 CFG=1
M  V30 16 C  24.9090 40.2732 87.5709 0
M  V30 17 C  26.1467 41.2075 87.4727 0
M  V30 18 C  25.3354 39.0002 88.3150 0
M  V30 19 C  24.0970 41.3234 85.4006 0
M  V30 20 C  25.2779 41.4981 84.6186 0
M  V30 21 N  26.2755 41.5805 84.0436 0
M  V30 22 C  23.1892 42.3359 85.4489 0
M  V30 23 N  23.2847 43.5564 84.8435 0
M  V30 24 O  22.0222 42.3422 86.1391 0
M  V30 25 C  21.7113 41.1250 86.6724 0
M  V30 26 C  22.5009 39.9901 86.7577 0
M  V30 27 N  20.4874 40.8662 87.1949 0
M  V30 28 N  20.4083 39.6032 87.6079 0
M  V30 29 C  21.5855 39.0555 87.3373 0
M  V30 30 C  21.7426 37.5852 87.6741 0
M  V30 31 H  28.4843 38.4520 85.5198 0
M  V30 32 H  30.7984 38.0788 84.8683 0
M  V30 33 H  31.3390 36.5906 82.9699 0
M  V30 34 H  29.5294 35.4946 81.6969 0
M  V30 35 H  27.2093 35.8753 82.2904 0
M  V30 36 H  25.4667 35.6141 83.4212 0
M  V30 37 H  22.4303 35.1565 84.3725 0
M  V30 38 H  21.9155 36.4567 83.3047 0
M  V30 39 H  22.5190 34.5063 82.1894 0
M  V30 40 H  26.5149 39.2199 85.4654 0
M  V30 41 H  22.4227 38.1140 84.9940 0
M  V30 42 H  24.2757 40.8102 88.2815 0
M  V30 43 H  26.9086 40.8383 86.7895 0
M  V30 44 H  25.8763 42.2168 87.1621 0
M  V30 45 H  26.6300 41.3194 88.4441 0
M  V30 46 H  26.1082 38.4387 87.7911 0
M  V30 47 H  25.7200 39.2275 89.3099 0
M  V30 48 H  24.4829 38.3566 88.4417 0
M  V30 49 H  24.0231 43.7562 84.1811 0
M  V30 50 H  22.4822 44.1786 84.8119 0
M  V30 51 H  19.7178 41.5217 87.2435 0
M  V30 52 H  22.4828 37.4212 88.4436 0
M  V30 53 H  22.0317 36.9678 86.8286 0
M  V30 54 H  20.8173 37.1429 88.0437 0
M  V30 END ATOM
M  V30 BEGIN BOND
M  V30 1 2 1 2
M  V30 2 1 1 6
M  V30 3 1 1 31
M  V30 4 1 2 3
M  V30 5 1 2 32
M  V30 6 2 3 4
M  V30 7 1 3 33
M  V30 8 1 4 5
M  V30 9 1 4 34
M  V30 10 2 5 6
M  V30 11 1 5 35
M  V30 12 1 6 7
M  V30 13 2 7 8
M  V30 14 1 7 12
M  V30 15 1 8 9
M  V30 16 1 8 36
M  V30 17 1 9 10
M  V30 18 2 9 14
M  V30 19 1 10 11
M  V30 20 1 10 37
M  V30 21 1 10 38
M  V30 22 1 11 39
M  V30 23 2 12 13
M  V30 24 1 12 40
M  V30 25 1 13 14
M  V30 26 1 13 15
M  V30 27 1 14 41
M  V30 28 1 15 16
M  V30 29 1 15 19
M  V30 30 1 15 26
M  V30 31 1 16 17
M  V30 32 1 16 18
M  V30 33 1 16 42
M  V30 34 1 17 43
M  V30 35 1 17 44
M  V30 36 1 17 45
M  V30 37 1 18 46
M  V30 38 1 18 47
M  V30 39 1 18 48
M  V30 40 1 19 20
M  V30 41 2 19 22
M  V30 42 3 20 21
M  V30 43 1 22 23
M  V30 44 1 22 24
M  V30 45 1 23 49
M  V30 46 1 23 50
M  V30 47 1 24 25
M  V30 48 2 25 26
M  V30 49 1 25 27
M  V30 50 1 26 29
M  V30 51 1 27 28
M  V30 52 1 27 51
M  V30 53 2 28 29
M  V30 54 1 29 30
M  V30 55 1 30 52
M  V30 56 1 30 53
M  V30 57 1 30 54
M  V30 END BOND
M  V30 END CTAB
M  END
> <s_m_entry_id>
1551

> <s_m_entry_name>
result.7299

> <s_m_Source_Path>
D:\OneDrive - zju.edu.cn\DOC\A-Finished\LCK_VS\Planet\LCK-8617

> <s_m_Source_File>
glide-dock_SP_top1262_2_pv.maegz

> <i_m_Source_File_Index>
1551

> <PLANET_affinity>
7.019

> <i_lp_mmshare_version>
54117

> <i_f3d_flags>
0

> <s_epik_input>
W2NIXTFbY0hdW2NIXVtjSF1bY0hdYzEtYzJbY0hdYyhbQ0gyXVtPSF0pW2NIXWMoW2NIXTIpW0NAQF0oW0NIXShbQ0gzXSlbQ0gzXSkoQyhDI04pPUMoTzMpW05IMl0pYyhjMzQpYyhbQ0gzXSluW25IXTQ=

> <s_epik_cmdline>
J2VwaWtfcHl0aG9uJywgJy1waCcsICc3LjAnLCAnLXRuJywgJzgnLCAnLW1hJywgJzUwMCcsICctaW1hZScsICc8aW5maWxlLm1hZT4nLCAnLW9tYWUnLCAnPG91dGZpbGUubWFlPic=

> <r_epik_Ionization_Penalty>
  0.0000

> <r_epik_Ionization_Penalty_Charging>
  0.0000

> <r_epik_Ionization_Penalty_Neutral>
  0.0000

> <r_epik_State_Penalty>
  0.0000

> <r_epik_Charging_Adjusted_Penalty>
0

> <i_epik_Tot_Q>
0

> <i_epik_Tot_abs_Q>
0

> <s_lp_Force_Field>
S-OPLS

> <r_lp_Energy>
48.1804

> <b_lp_Chiralities_Consistent>
1

> <s_lp_Variant>
OCC1=CC(C2=CC=CC=C2)=CC([C@@]3(C(C(C)=NN4)=C4OC(N)=C3C#N)C(C)C)=C1-1

> <s_i_glide_gridfile>
glide-grid_1

> <i_i_glide_lignum>
2691

> <i_i_glide_rotatable_bonds>
5

> <r_i_docking_score>
-7.22382969881962

> <r_i_glide_ligand_efficiency>
-0.240794323293987

> <r_i_glide_ligand_efficiency_sa>
-0.748203947739976

> <r_i_glide_ligand_efficiency_ln>
-1.64133281750056

> <r_i_glide_gscore>
-7.22382969881962

> <r_i_glide_lipo>
-2.43836895156148

> <r_i_glide_hbond>
-0.823017607551657

> <r_i_glide_metal>
0

> <r_i_glide_rewards>
-0.820978526111854

> <r_i_glide_evdw>
-32.2410774230957

> <r_i_glide_ecoul>
-11.9021606445312

> <r_i_glide_erotb>
0.366719094258207

> <r_i_glide_esite>
-0.110805740018356

> <r_i_glide_emodel>
-60.190318993033

> <r_i_glide_energy>
-44.143238067627

> <r_i_glide_einternal>
7.20691299438477

> <i_i_glide_confnum>
1

> <i_i_glide_posenum>
232

> <r_i_glide_eff_state_penalty>
0

> <r_lp_tautomer_probability>
1

> <s_m_subgroup_title>
glide-dock_SP_top1262_2_pv

> <s_m_subgroupid>
glide-dock_SP_top1262_2_pv

> <b_m_subgroup_collapsed>
0

$$$$
O=C1OC(C2=CC(S(=O)(O[Na])=O)=C(O)C=C2)(C3=CC(S(=O)(O[Na])=O)=C(O)C=C3)C4=C1C(...
                    3D
 Schrodinger Suite 2021-3.
  0  0  0     0  0            999 V3000
M  V30 BEGIN CTAB
M  V30 COUNTS 44 47 0 0 0
M  V30 BEGIN ATOM
M  V30 1 Br 22.0830 35.4947 87.6436 0
M  V30 2 C  20.8258 36.8017 87.0822 0
M  V30 3 C  19.4662 36.5987 87.3538 0
M  V30 4 Br 18.8887 35.1566 88.4435 0
M  V30 5 C  18.4989 37.4148 86.7744 0
M  V30 6 Br 16.6469 37.1566 87.1806 0
M  V30 7 C  18.8905 38.3989 85.8726 0
M  V30 8 Br 17.5549 39.1566 84.7497 0
M  V30 9 C  20.2528 38.7072 85.7463 0
M  V30 10 C  21.2310 37.9172 86.3316 0
M  V30 11 C  20.9394 39.7898 85.0294 0
M  V30 12 O  20.4830 40.7566 84.4435 0
M  V30 13 O  22.2590 39.5907 85.1330 0
M  V30 14 C  22.6091 38.4727 85.9350 0
M  V30 15 C  23.3896 39.0451 87.1714 0
M  V30 16 C  22.7520 39.9647 88.0258 0
M  V30 17 C  23.4399 40.5992 89.0712 0
M  V30 18 S  22.5664 41.6352 90.2410 0
M  V30 19 O  22.4830 40.7567 91.4115 0
M  V30 20 O  23.4630 42.7860 90.3991 0
M  V30 21 O  21.2830 41.9027 89.5863 0 CHG=-1
M  V30 22 C  24.8047 40.3566 89.2497 0
M  V30 23 O  25.5247 40.9919 90.2268 0
M  V30 24 C  25.4465 39.4278 88.4434 0
M  V30 25 C  24.7402 38.7566 87.4493 0
M  V30 26 C  23.4170 37.5378 84.9861 0
M  V30 27 C  24.7034 37.9102 84.5735 0
M  V30 28 C  25.5034 37.0693 83.8030 0
M  V30 29 S  27.2046 37.5784 83.5847 0
M  V30 30 O  27.8216 36.4726 82.8435 0
M  V30 31 O  27.0505 38.8352 82.8435 0
M  V30 32 O  27.6597 37.7271 84.9708 0 CHG=-1
M  V30 33 C  24.9591 35.8911 83.2790 0
M  V30 34 O  25.6830 35.0560 82.4698 0
M  V30 35 C  23.6402 35.5566 83.5825 0
M  V30 36 C  22.8858 36.3557 84.4435 0
M  V30 37 H  21.7079 40.1959 87.8723 0
M  V30 38 H  25.0134 41.7287 90.5876 0
M  V30 39 H  26.4913 39.2033 88.6024 0
M  V30 40 H  25.2950 38.0049 86.9143 0
M  V30 41 H  25.1217 38.8538 84.8969 0
M  V30 42 H  26.5926 35.3932 82.3941 0
M  V30 43 H  23.2046 34.6562 83.1732 0
M  V30 44 H  21.8791 36.0389 84.6657 0
M  V30 END ATOM
M  V30 BEGIN BOND
M  V30 1 1 1 2
M  V30 2 2 2 3
M  V30 3 1 2 10
M  V30 4 1 3 4
M  V30 5 1 3 5
M  V30 6 1 5 6
M  V30 7 2 5 7
M  V30 8 1 7 8
M  V30 9 1 7 9
M  V30 10 2 9 10
M  V30 11 1 9 11
M  V30 12 1 10 14
M  V30 13 2 11 12
M  V30 14 1 11 13
M  V30 15 1 13 14
M  V30 16 1 14 15
M  V30 17 1 14 26
M  V30 18 2 15 16
M  V30 19 1 15 25
M  V30 20 1 16 17
M  V30 21 1 16 37
M  V30 22 1 17 18
M  V30 23 2 17 22
M  V30 24 2 18 19
M  V30 25 2 18 20
M  V30 26 1 18 21
M  V30 27 1 22 23
M  V30 28 1 22 24
M  V30 29 1 23 38
M  V30 30 2 24 25
M  V30 31 1 24 39
M  V30 32 1 25 40
M  V30 33 2 26 27
M  V30 34 1 26 36
M  V30 35 1 27 28
M  V30 36 1 27 41
M  V30 37 1 28 29
M  V30 38 2 28 33
M  V30 39 2 29 30
M  V30 40 2 29 31
M  V30 41 1 29 32
M  V30 42 1 33 34
M  V30 43 1 33 35
M  V30 44 1 34 42
M  V30 45 2 35 36
M  V30 46 1 35 43
M  V30 47 1 36 44
M  V30 END BOND
M  V30 END CTAB
M  END
> <s_m_entry_id>
1552

> <s_m_entry_name>
result.28

> <s_m_Source_Path>
D:\OneDrive - zju.edu.cn\DOC\A-Finished\LCK_VS\Planet\LCK-8617

> <s_m_Source_File>
glide-dock_SP_top1262_2_pv.maegz

> <i_m_Source_File_Index>
1552

> <PLANET_affinity>
8.184

> <i_lp_mmshare_version>
54117

> <i_f3d_flags>
0

> <s_epik_input>
QnJjMWMoQnIpYyhCciljKEJyKWMoYzEyKUMoT0MyPU8pKGMzW2NIXWMoUyg9TykoPU8pW09IXSljKFtPSF0pW2NIXVtjSF0zKWM0W2NIXWMoUyg9TykoPU8pW09IXSljKFtPSF0pW2NIXVtjSF00

> <s_epik_cmdline>
J2VwaWtfcHl0aG9uJywgJy1waCcsICc3LjAnLCAnLXRuJywgJzgnLCAnLW1hJywgJzUwMCcsICctaW1hZScsICc8aW5maWxlLm1hZT4nLCAnLW9tYWUnLCAnPG91dGZpbGUubWFlPic=

> <r_epik_Ionization_Penalty>
  0.0757

> <r_epik_Ionization_Penalty_Charging>
  0.0000

> <r_epik_Ionization_Penalty_Neutral>
  0.0757

> <r_epik_State_Penalty>
  0.0667

> <r_epik_Charging_Adjusted_Penalty>
0.066729

> <i_epik_Tot_Q>
-2

> <i_epik_Tot_abs_Q>
2

> <s_epik_Chemistry_Notes>
This compound has an ester and may undergo hydrolysis at high or low pH.

> <s_lp_Force_Field>
S-OPLS

> <r_lp_Energy>
38.9801

> <b_lp_Chiralities_Consistent>
1

> <s_lp_Variant>
O=C1OC(C2=CC(S(=O)(O[Na])=O)=C(O)C=C2)(C3=CC(S(=O)(O[Na])=O)=C(O)C=C3)C4=C1C(...-1

> <s_i_glide_gridfile>
glide-grid_1

> <i_i_glide_lignum>
1099

> <i_i_glide_rotatable_bonds>
6

> <r_i_docking_score>
-7.22258927292527

> <r_i_glide_ligand_efficiency>
-0.20062747980348

> <r_i_glide_ligand_efficiency_sa>
-0.662457341648856

> <r_i_glide_ligand_efficiency_ln>
-1.5757738475404

> <r_i_glide_gscore>
-7.28928927292527

> <r_i_glide_lipo>
-3.43159659561753

> <r_i_glide_hbond>
-0.0835928058374255

> <r_i_glide_metal>
0

> <r_i_glide_rewards>
-1.08553252728254

> <r_i_glide_evdw>
-46.1211013793945

> <r_i_glide_ecoul>
-2.89537811279297

> <r_i_glide_erotb>
0.0693562872501538

> <r_i_glide_esite>
-0.0175618455492539

> <r_i_glide_emodel>
-71.1621411987984

> <r_i_glide_energy>
-49.0164794921875

> <r_i_glide_einternal>
2.60235977172852

> <i_i_glide_confnum>
3

> <i_i_glide_posenum>
12

> <r_i_glide_eff_state_penalty>
0.0667

> <r_lp_tautomer_probability>
1

> <s_m_subgroup_title>
glide-dock_SP_top1262_2_pv

> <s_m_subgroupid>
glide-dock_SP_top1262_2_pv

> <b_m_subgroup_collapsed>
0

$$$$
OC1=C(F)C=C(C2=C(C3=CC=C(N4CCN(C)CC4)C=C3)C=CN=C2)C=C1F
                    3D
 Schrodinger Suite 2021-3.
  0  0  0     0  0            999 V3000
M  V30 BEGIN CTAB
M  V30 COUNTS 50 53 0 0 0
M  V30 BEGIN ATOM
M  V30 1 O  22.8867 43.5566 85.2437 0
M  V30 2 C  22.4118 42.3025 85.5381 0
M  V30 3 C  22.1340 41.9566 86.8628 0
M  V30 4 F  22.3054 42.8537 87.8609 0
M  V30 5 C  21.6904 40.6718 87.1720 0
M  V30 6 C  21.5250 39.7052 86.1724 0
M  V30 7 C  21.7913 40.0632 84.8454 0
M  V30 8 C  22.2283 41.3515 84.5266 0
M  V30 9 F  22.4830 41.6632 83.2357 0
M  V30 10 C  21.0723 38.3345 86.5369 0
M  V30 11 C  21.8135 37.1615 86.2513 0
M  V30 12 C  21.2929 35.9296 86.6732 0
M  V30 13 C  20.0826 35.8894 87.3582 0
M  V30 14 N  19.3561 36.9956 87.6279 0
M  V30 15 C  19.8521 38.1869 87.2141 0
M  V30 16 C  23.1353 37.1630 85.5590 0
M  V30 17 C  23.3434 36.3572 84.4389 0
M  V30 18 C  24.5915 36.3035 83.8203 0
M  V30 19 C  25.6812 37.0510 84.2997 0
M  V30 20 C  25.4571 37.8512 85.4339 0
M  V30 21 C  24.2058 37.9177 86.0430 0
M  V30 22 N  26.9596 36.9343 83.7283 0
M  V30 23 C  28.0279 37.9476 83.8843 0
M  V30 24 C  29.4503 37.3503 83.9772 0
M  V30 25 N  29.7490 36.5518 82.6934 0 CHG=1
M  V30 26 C  31.1564 35.9180 82.7475 0
M  V30 27 C  28.6744 35.4608 82.5529 0
M  V30 28 C  27.2663 36.1091 82.5363 0
M  V30 29 H  22.2454 44.1616 84.8439 0
M  V30 30 H  21.4940 40.4212 88.2029 0
M  V30 31 H  21.6645 39.3400 84.0536 0
M  V30 32 H  21.8253 35.0068 86.4884 0
M  V30 33 H  19.6817 34.9483 87.7048 0
M  V30 34 H  19.2356 39.0468 87.4367 0
M  V30 35 H  22.5345 35.7588 84.0431 0
M  V30 36 H  24.6729 35.6606 82.9600 0
M  V30 37 H  26.2457 38.4251 85.8916 0
M  V30 38 H  24.0778 38.5349 86.9202 0
M  V30 39 H  27.8795 38.5823 84.7543 0
M  V30 40 H  27.9697 38.6376 83.0403 0
M  V30 41 H  30.2109 38.1297 84.0464 0
M  V30 42 H  29.5543 36.6751 84.8292 0
M  V30 43 H  31.2175 35.2739 83.6288 0
M  V30 44 H  31.2955 35.3459 81.8273 0
M  V30 45 H  31.8796 36.7316 82.8039 0
M  V30 46 H  28.8889 34.9252 81.6311 0
M  V30 47 H  28.8128 34.7580 83.3725 0
M  V30 48 H  27.1416 36.7424 81.6487 0
M  V30 49 H  26.5614 35.2901 82.4186 0
M  V30 50 H  29.6838 37.1662 81.8940 0
M  V30 END ATOM
M  V30 BEGIN BOND
M  V30 1 1 1 2
M  V30 2 1 1 29
M  V30 3 2 2 3
M  V30 4 1 2 8
M  V30 5 1 3 4
M  V30 6 1 3 5
M  V30 7 2 5 6
M  V30 8 1 5 30
M  V30 9 1 6 7
M  V30 10 1 6 10
M  V30 11 2 7 8
M  V30 12 1 7 31
M  V30 13 1 8 9
M  V30 14 1 10 11
M  V30 15 2 10 15
M  V30 16 2 11 12
M  V30 17 1 11 16
M  V30 18 1 12 13
M  V30 19 1 12 32
M  V30 20 2 13 14
M  V30 21 1 13 33
M  V30 22 1 14 15
M  V30 23 1 15 34
M  V30 24 2 16 17
M  V30 25 1 16 21
M  V30 26 1 17 18
M  V30 27 1 17 35
M  V30 28 2 18 19
M  V30 29 1 18 36
M  V30 30 1 19 20
M  V30 31 1 19 22
M  V30 32 2 20 21
M  V30 33 1 20 37
M  V30 34 1 21 38
M  V30 35 1 22 23
M  V30 36 1 22 28
M  V30 37 1 23 24
M  V30 38 1 23 39
M  V30 39 1 23 40
M  V30 40 1 24 25
M  V30 41 1 24 41
M  V30 42 1 24 42
M  V30 43 1 25 26
M  V30 44 1 25 27
M  V30 45 1 25 50
M  V30 46 1 26 43
M  V30 47 1 26 44
M  V30 48 1 26 45
M  V30 49 1 27 28
M  V30 50 1 27 46
M  V30 51 1 27 47
M  V30 52 1 28 48
M  V30 53 1 28 49
M  V30 END BOND
M  V30 END CTAB
M  END
> <s_m_entry_id>
1559

> <s_m_entry_name>
result.2170

> <s_m_Source_Path>
D:\OneDrive - zju.edu.cn\DOC\A-Finished\LCK_VS\Planet\LCK-8617

> <s_m_Source_File>
glide-dock_SP_top1262_2_pv.maegz

> <i_m_Source_File_Index>
1559

> <PLANET_affinity>
7.394

> <i_lp_mmshare_version>
54117

> <i_f3d_flags>
0

> <s_epik_input>
W09IXWMxYyhGKVtjSF1jKFtjSF1jMUYpLWMyYyhbY0hdW2NIXW5bY0hdMiktYzNbY0hdW2NIXWMoW2NIXVtjSF0zKU40W0NIMl1bQ0gyXU4oW0NIM10pW0NIMl1bQ0gyXTQ=

> <s_epik_cmdline>
J2VwaWtfcHl0aG9uJywgJy1waCcsICc3LjAnLCAnLXRuJywgJzgnLCAnLW1hJywgJzUwMCcsICctaW1hZScsICc8aW5maWxlLm1hZT4nLCAnLW9tYWUnLCAnPG91dGZpbGUubWFlPic=

> <r_epik_Ionization_Penalty>
  0.3699

> <r_epik_Ionization_Penalty_Charging>
  0.0647

> <r_epik_Ionization_Penalty_Neutral>
  0.3051

> <r_epik_State_Penalty>
  0.3524

> <r_epik_Charging_Adjusted_Penalty>
0.417143

> <i_epik_Tot_Q>
1

> <i_epik_Tot_abs_Q>
1

> <s_lp_Force_Field>
S-OPLS

> <r_lp_Energy>
62.3254

> <b_lp_Chiralities_Consistent>
1

> <s_lp_Variant>
OC1=C(F)C=C(C2=C(C3=CC=C(N4CCN(C)CC4)C=C3)C=CN=C2)C=C1F-1

> <s_i_glide_gridfile>
glide-grid_1

> <i_i_glide_lignum>
2103

> <i_i_glide_rotatable_bonds>
4

> <r_i_docking_score>
-7.21888865808325

> <r_i_glide_ligand_efficiency>
-0.257817452074402

> <r_i_glide_ligand_efficiency_sa>
-0.782885630856632

> <r_i_glide_ligand_efficiency_ln>
-1.66633145806667

> <r_i_glide_gscore>
-7.57128865808325

> <r_i_glide_lipo>
-3.2097917221921

> <r_i_glide_hbond>
-0.32

> <r_i_glide_metal>
0

> <r_i_glide_rewards>
-1.46758396022598

> <r_i_glide_evdw>
-37.6379089355469

> <r_i_glide_ecoul>
-6.97832012176514

> <r_i_glide_erotb>
0.39839000720397

> <r_i_glide_esite>
-0.0436595178270231

> <r_i_glide_emodel>
-62.9272394776849

> <r_i_glide_energy>
-44.616229057312

> <r_i_glide_einternal>
5.60409784317017

> <i_i_glide_confnum>
14

> <i_i_glide_posenum>
369

> <r_i_glide_eff_state_penalty>
0.3524

> <r_lp_tautomer_probability>
1

> <s_m_subgroup_title>
glide-dock_SP_top1262_2_pv

> <s_m_subgroupid>
glide-dock_SP_top1262_2_pv

> <b_m_subgroup_collapsed>
0

$$$$
O=C(C1=C2SC(CC3=C(NN=C3C)C)=C1C(N4C[C@@H](CO4)O)=O)N(C(N2CC(C)C)=O)C
                    3D
 Schrodinger Suite 2021-3.
  0  0  0     0  0            999 V3000
M  V30 BEGIN CTAB
M  V30 COUNTS 59 62 0 0 0
M  V30 BEGIN ATOM
M  V30 1 O  24.3409 41.8844 88.0612 0
M  V30 2 C  23.3802 41.2389 87.6338 0
M  V30 3 N  22.0657 41.6675 87.7459 0
M  V30 4 C  21.8637 42.9734 88.4203 0
M  V30 5 C  20.9014 40.9625 87.4793 0
M  V30 6 O  19.8273 41.1835 88.0434 0
M  V30 7 N  21.0557 39.9535 86.5627 0
M  V30 8 C  19.8377 39.3092 86.0108 0
M  V30 9 C  19.0779 38.3290 86.9480 0
M  V30 10 C  19.9483 37.1785 87.4897 0
M  V30 11 C  17.8218 37.7748 86.2503 0
M  V30 12 C  22.3229 39.4165 86.3363 0
M  V30 13 C  23.4657 39.9656 86.9082 0
M  V30 14 S  22.6659 38.0255 85.3812 0
M  V30 15 C  24.3349 38.0087 85.8766 0
M  V30 16 C  24.6072 39.1424 86.6770 0
M  V30 17 C  25.9204 39.3803 87.2444 0
M  V30 18 O  26.1068 39.1567 88.4420 0
M  V30 19 N  26.9028 39.7490 86.3844 0
M  V30 20 C  26.7655 40.3673 85.0655 0
M  V30 21 C  28.0797 41.1198 84.9556 0 CFG=1
M  V30 22 C  29.0275 40.2373 85.7583 0
M  V30 23 O  28.2402 39.7046 86.8173 0
M  V30 24 O  28.5215 41.2983 83.6213 0
M  V30 25 C  25.2363 36.8224 85.5400 0
M  V30 26 C  25.3399 36.4377 84.0705 0
M  V30 27 C  26.4528 36.5913 83.2441 0
M  V30 28 C  27.8337 37.1652 83.4586 0
M  V30 29 N  26.0844 36.0503 82.0471 0
M  V30 30 N  24.8523 35.5561 82.0437 0
M  V30 31 C  24.3970 35.7688 83.2530 0
M  V30 32 C  23.0102 35.2660 83.5737 0
M  V30 33 H  20.9753 42.9986 89.0538 0
M  V30 34 H  22.6909 43.2558 89.0742 0
M  V30 35 H  21.7520 43.7600 87.6709 0
M  V30 36 H  19.1575 40.1030 85.6945 0
M  V30 37 H  20.0895 38.7907 85.0861 0
M  V30 38 H  18.7126 38.8960 87.8049 0
M  V30 39 H  20.3111 36.5373 86.6877 0
M  V30 40 H  20.8128 37.5515 88.0367 0
M  V30 41 H  19.3849 36.5504 88.1795 0
M  V30 42 H  18.0764 37.1745 85.3743 0
M  V30 43 H  17.2445 37.1403 86.9231 0
M  V30 44 H  17.1598 38.5810 85.9294 0
M  V30 45 H  26.6702 39.6033 84.2926 0
M  V30 46 H  25.9111 41.0375 84.9722 0
M  V30 47 H  27.9774 42.0931 85.4439 0
M  V30 48 H  29.8781 40.7955 86.1513 0
M  V30 49 H  29.4129 39.4076 85.1595 0
M  V30 50 H  29.3340 41.8230 83.6441 0
M  V30 51 H  26.2347 37.0146 85.9250 0
M  V30 52 H  24.8944 35.9520 86.1024 0
M  V30 53 H  28.6130 36.4773 83.1281 0
M  V30 54 H  27.9760 38.0958 82.9060 0
M  V30 55 H  28.0396 37.3765 84.5094 0
M  V30 56 H  26.6957 35.9670 81.2394 0
M  V30 57 H  22.8018 35.2674 84.6419 0
M  V30 58 H  22.2394 35.8679 83.0892 0
M  V30 59 H  22.8667 34.2425 83.2388 0
M  V30 END ATOM
M  V30 BEGIN BOND
M  V30 1 2 1 2
M  V30 2 1 2 3
M  V30 3 1 2 13
M  V30 4 1 3 4
M  V30 5 1 3 5
M  V30 6 1 4 33
M  V30 7 1 4 34
M  V30 8 1 4 35
M  V30 9 2 5 6
M  V30 10 1 5 7
M  V30 11 1 7 8
M  V30 12 1 7 12
M  V30 13 1 8 9
M  V30 14 1 8 36
M  V30 15 1 8 37
M  V30 16 1 9 10
M  V30 17 1 9 11
M  V30 18 1 9 38
M  V30 19 1 10 39
M  V30 20 1 10 40
M  V30 21 1 10 41
M  V30 22 1 11 42
M  V30 23 1 11 43
M  V30 24 1 11 44
M  V30 25 2 12 13
M  V30 26 1 12 14
M  V30 27 1 13 16
M  V30 28 1 14 15
M  V30 29 2 15 16
M  V30 30 1 15 25
M  V30 31 1 16 17
M  V30 32 2 17 18
M  V30 33 1 17 19
M  V30 34 1 19 20
M  V30 35 1 19 23
M  V30 36 1 20 21
M  V30 37 1 20 45
M  V30 38 1 20 46
M  V30 39 1 21 22
M  V30 40 1 21 24
M  V30 41 1 21 47
M  V30 42 1 22 23
M  V30 43 1 22 48
M  V30 44 1 22 49
M  V30 45 1 24 50
M  V30 46 1 25 26
M  V30 47 1 25 51
M  V30 48 1 25 52
M  V30 49 2 26 27
M  V30 50 1 26 31
M  V30 51 1 27 28
M  V30 52 1 27 29
M  V30 53 1 28 53
M  V30 54 1 28 54
M  V30 55 1 28 55
M  V30 56 1 29 30
M  V30 57 1 29 56
M  V30 58 2 30 31
M  V30 59 1 31 32
M  V30 60 1 32 57
M  V30 61 1 32 58
M  V30 62 1 32 59
M  V30 END BOND
M  V30 END CTAB
M  END
> <s_m_entry_id>
1560

> <s_m_entry_name>
result.4029

> <s_m_Source_Path>
D:\OneDrive - zju.edu.cn\DOC\A-Finished\LCK_VS\Planet\LCK-8617

> <s_m_Source_File>
glide-dock_SP_top1262_2_pv.maegz

> <i_m_Source_File_Index>
1560

> <PLANET_affinity>
7.625

> <i_lp_mmshare_version>
54117

> <i_f3d_flags>
0

> <s_epik_input>
W0NIM11bQ0hdKFtDSDNdKVtDSDJdbjFjKD1PKW4oW0NIM10pYyg9TyljKGMxMiljKEMoPU8pTjNbQ0gyXVtDQEBIXShbQ0gyXU8zKVtPSF0pYyhzMilbQ0gyXWM0YyhbQ0gzXSlbbkhdbmM0W0NIM10=

> <s_epik_cmdline>
J2VwaWtfcHl0aG9uJywgJy1waCcsICc3LjAnLCAnLXRuJywgJzgnLCAnLW1hJywgJzUwMCcsICctaW1hZScsICc8aW5maWxlLm1hZT4nLCAnLW9tYWUnLCAnPG91dGZpbGUubWFlPic=

> <r_epik_Ionization_Penalty>
  0.0010

> <r_epik_Ionization_Penalty_Charging>
  0.0000

> <r_epik_Ionization_Penalty_Neutral>
  0.0010

> <r_epik_State_Penalty>
  0.0000

> <r_epik_Charging_Adjusted_Penalty>
4.07568e-09

> <i_epik_Tot_Q>
0

> <i_epik_Tot_abs_Q>
0

> <s_epik_Chemistry_Notes>
This compound has a N-S or N-O group and may undergo hydrolysis at high or low pH.

> <s_lp_Force_Field>
S-OPLS

> <r_lp_Energy>
41.481

> <b_lp_Chiralities_Consistent>
1

> <s_lp_Variant>
O=C(C1=C2SC(CC3=C(NN=C3C)C)=C1C(N4C[C@@H](CO4)O)=O)N(C(N2CC(C)C)=O)C-1

> <s_i_glide_gridfile>
glide-grid_1

> <i_i_glide_lignum>
1761

> <i_i_glide_rotatable_bonds>
7

> <r_i_docking_score>
-7.21853815311461

> <r_i_glide_ligand_efficiency>
-0.225579317284831

> <r_i_glide_ligand_efficiency_sa>
-0.716169690293068

> <r_i_glide_ligand_efficiency_ln>
-1.61642746240078

> <r_i_glide_gscore>
-7.21853815311461

> <r_i_glide_lipo>
-2.42619972142574

> <r_i_glide_hbond>
-0.723957682865225

> <r_i_glide_metal>
0

> <r_i_glide_rewards>
-1.2714373047314

> <r_i_glide_evdw>
-40.2849578857422

> <r_i_glide_ecoul>
-6.95545339584351

> <r_i_glide_erotb>
0.330865635679246

> <r_i_glide_esite>
-0.0702431761078478

> <r_i_glide_emodel>
-68.5172990514865

> <r_i_glide_energy>
-47.2404112815857

> <r_i_glide_einternal>
2.34822964668274

> <i_i_glide_confnum>
2

> <i_i_glide_posenum>
316

> <r_i_glide_eff_state_penalty>
0

> <r_lp_tautomer_probability>
1

> <s_m_subgroup_title>
glide-dock_SP_top1262_2_pv

> <s_m_subgroupid>
glide-dock_SP_top1262_2_pv

> <b_m_subgroup_collapsed>
0

$$$$
N#CC[C@@H]1N(C(C=C)=O)CCN(C2=C3C(CN(C4=C5C(C)=CC=CC5=CC=C4)CC3)=NC(OC[C@H]6N(...
                    3D
 Schrodinger Suite 2021-3.
  0  0  0     0  0            999 V3000
M  V30 BEGIN CTAB
M  V30 COUNTS 83 88 0 0 0
M  V30 BEGIN ATOM
M  V30 1 N  17.3155 38.3848 84.3541 0
M  V30 2 C  18.4176 38.0988 84.1535 0
M  V30 3 C  19.8210 37.7443 83.8935 0
M  V30 4 C  20.7096 37.6118 85.1508 0 CFG=2
M  V30 5 N  20.5497 38.7302 86.1109 0
M  V30 6 C  19.7919 38.6887 87.2434 0
M  V30 7 O  19.6759 39.6697 87.9860 0
M  V30 8 C  19.1167 37.4533 87.5759 0
M  V30 9 C  17.8413 37.4531 88.0083 0
M  V30 10 C  21.0591 40.0614 85.7104 0
M  V30 11 C  22.1382 39.9581 84.6126 0
M  V30 12 N  23.0023 38.7808 84.7550 0
M  V30 13 C  22.2232 37.5250 84.7689 0
M  V30 14 C  24.2396 38.8840 85.3798 0
M  V30 15 N  24.2701 39.7015 86.4649 0
M  V30 16 C  25.4634 39.9232 87.0598 0
M  V30 17 O  25.5777 40.8740 88.0597 0
M  V30 18 C  24.4248 41.6362 88.4775 0
M  V30 19 C  23.8279 42.6159 87.4203 0 CFG=1
M  V30 20 N  22.6808 43.5462 87.8745 0 CHG=1 CFG=2
M  V30 21 C  21.3068 42.8605 88.0599 0
M  V30 22 C  22.6157 44.6685 86.8133 0
M  V30 23 C  24.0309 44.7619 86.2305 0
M  V30 24 C  24.8385 43.6101 86.8373 0
M  V30 25 N  26.5867 39.2917 86.6695 0 CHG=1
M  V30 26 C  26.5911 38.4434 85.6121 0
M  V30 27 C  25.3941 38.2196 84.9113 0
M  V30 28 C  27.9004 37.7835 85.1856 0
M  V30 29 N  27.9820 37.5229 83.7404 0
M  V30 30 C  26.8102 36.6988 83.3813 0
M  V30 31 C  25.4506 37.3971 83.6258 0
M  V30 32 C  29.2617 37.2584 83.2433 0
M  V30 33 C  29.5515 35.9526 82.8173 0
M  V30 34 C  30.8244 35.5564 82.4504 0
M  V30 35 C  31.8826 36.4386 82.5421 0
M  V30 36 C  31.6681 37.7747 82.9431 0
M  V30 37 C  30.3375 38.2399 83.2436 0
M  V30 38 C  32.7741 38.6529 83.0292 0
M  V30 39 C  32.5956 39.9812 83.3749 0
M  V30 40 C  31.3211 40.4765 83.5889 0
M  V30 41 C  30.1932 39.6625 83.4896 0
M  V30 42 C  28.8407 40.3703 83.5505 0
M  V30 43 H  20.2060 38.5156 83.2432 0
M  V30 44 H  19.8371 36.8360 83.2950 0
M  V30 45 H  20.4228 36.6479 85.5685 0
M  V30 46 H  19.6643 36.5305 87.4727 0
M  V30 47 H  17.2826 38.3727 88.1156 0
M  V30 48 H  17.3279 36.5360 88.2550 0
M  V30 49 H  20.2676 40.7425 85.3954 0
M  V30 50 H  21.5931 40.4614 86.5720 0
M  V30 51 H  21.6640 39.8800 83.6433 0
M  V30 52 H  22.7330 40.8732 84.5843 0
M  V30 53 H  22.3404 37.0150 83.8120 0
M  V30 54 H  22.7010 36.8854 85.5132 0
M  V30 55 H  23.6522 40.9522 88.8340 0
M  V30 56 H  24.7309 42.2093 89.3543 0
M  V30 57 H  23.3844 42.0616 86.5964 0
M  V30 58 H  20.9439 42.5310 87.0858 0
M  V30 59 H  21.4355 42.0251 88.7482 0
M  V30 60 H  20.6218 43.6015 88.4741 0
M  V30 61 H  22.2379 45.5739 87.2904 0
M  V30 62 H  21.9025 44.3567 86.0442 0
M  V30 63 H  24.4863 45.7308 86.4460 0
M  V30 64 H  23.9838 44.6746 85.1422 0
M  V30 65 H  25.4638 44.0030 87.6410 0
M  V30 66 H  25.5313 43.1381 86.1383 0
M  V30 67 H  28.7548 38.3656 85.5335 0
M  V30 68 H  28.0019 36.8021 85.6434 0
M  V30 69 H  26.8684 36.4694 82.3147 0
M  V30 70 H  26.8414 35.7327 83.8847 0
M  V30 71 H  24.6457 36.6632 83.5795 0
M  V30 72 H  25.2839 38.0878 82.8017 0
M  V30 73 H  28.7856 35.1922 82.7834 0
M  V30 74 H  31.0004 34.5439 82.1203 0
M  V30 75 H  32.8793 36.1055 82.2894 0
M  V30 76 H  33.7680 38.2842 82.8221 0
M  V30 77 H  33.4450 40.6457 83.4381 0
M  V30 78 H  31.2121 41.5315 83.7982 0
M  V30 79 H  28.9390 41.4205 83.2699 0
M  V30 80 H  28.1262 39.9430 82.8488 0
M  V30 81 H  28.4258 40.3553 84.5557 0
M  V30 82 H  27.4500 39.4956 87.1515 0
M  V30 83 H  22.9524 43.9656 88.7542 0
M  V30 END ATOM
M  V30 BEGIN BOND
M  V30 1 3 1 2
M  V30 2 1 2 3
M  V30 3 1 3 4
M  V30 4 1 3 43
M  V30 5 1 3 44
M  V30 6 1 4 5
M  V30 7 1 4 13
M  V30 8 1 4 45
M  V30 9 1 5 6
M  V30 10 1 5 10
M  V30 11 2 6 7
M  V30 12 1 6 8
M  V30 13 2 8 9
M  V30 14 1 8 46
M  V30 15 1 9 47
M  V30 16 1 9 48
M  V30 17 1 10 11
M  V30 18 1 10 49
M  V30 19 1 10 50
M  V30 20 1 11 12
M  V30 21 1 11 51
M  V30 22 1 11 52
M  V30 23 1 12 13
M  V30 24 1 12 14
M  V30 25 1 13 53
M  V30 26 1 13 54
M  V30 27 2 14 15
M  V30 28 1 14 27
M  V30 29 1 15 16
M  V30 30 1 16 17
M  V30 31 2 16 25
M  V30 32 1 17 18
M  V30 33 1 18 19
M  V30 34 1 18 55
M  V30 35 1 18 56
M  V30 36 1 19 20
M  V30 37 1 19 24
M  V30 38 1 19 57
M  V30 39 1 20 21
M  V30 40 1 20 22
M  V30 41 1 20 83
M  V30 42 1 21 58
M  V30 43 1 21 59
M  V30 44 1 21 60
M  V30 45 1 22 23
M  V30 46 1 22 61
M  V30 47 1 22 62
M  V30 48 1 23 24
M  V30 49 1 23 63
M  V30 50 1 23 64
M  V30 51 1 24 65
M  V30 52 1 24 66
M  V30 53 1 25 26
M  V30 54 1 25 82
M  V30 55 2 26 27
M  V30 56 1 26 28
M  V30 57 1 27 31
M  V30 58 1 28 29
M  V30 59 1 28 67
M  V30 60 1 28 68
M  V30 61 1 29 30
M  V30 62 1 29 32
M  V30 63 1 30 31
M  V30 64 1 30 69
M  V30 65 1 30 70
M  V30 66 1 31 71
M  V30 67 1 31 72
M  V30 68 2 32 33
M  V30 69 1 32 37
M  V30 70 1 33 34
M  V30 71 1 33 73
M  V30 72 2 34 35
M  V30 73 1 34 74
M  V30 74 1 35 36
M  V30 75 1 35 75
M  V30 76 2 36 37
M  V30 77 1 36 38
M  V30 78 1 37 41
M  V30 79 2 38 39
M  V30 80 1 38 76
M  V30 81 1 39 40
M  V30 82 1 39 77
M  V30 83 2 40 41
M  V30 84 1 40 78
M  V30 85 1 41 42
M  V30 86 1 42 79
M  V30 87 1 42 80
M  V30 88 1 42 81
M  V30 END BOND
M  V30 END CTAB
M  END
> <s_m_entry_id>
1567

> <s_m_entry_name>
result.3711

> <s_m_Source_Path>
D:\OneDrive - zju.edu.cn\DOC\A-Finished\LCK_VS\Planet\LCK-8617

> <s_m_Source_File>
glide-dock_SP_top1262_2_pv.maegz

> <i_m_Source_File_Index>
1567

> <PLANET_affinity>
7.198

> <i_lp_mmshare_version>
54117

> <i_f3d_flags>
0

> <s_epik_input>
W0NIMl0xW0NIMl1bQ0gyXU4oW0NIM10pW0NAQEhdMVtDSDJdT2MobjIpbmMoTihbQ0gyXTMpW0NIMl1bQ0gyXU4oW0NASF0zW0NIMl1DI04pQyg9TylbQ0hdPVtDSDJdKWMoYzI0KVtDSDJdW0NIMl1OKFtDSDJdNCljKFtjSF1bY0hdW2NIXTUpYyhjNTYpYyhbQ0gzXSlbY0hdW2NIXVtjSF02

> <s_epik_cmdline>
J2VwaWtfcHl0aG9uJywgJy1waCcsICc3LjAnLCAnLXRuJywgJzgnLCAnLW1hJywgJzUwMCcsICctaW1hZScsICc8aW5maWxlLm1hZT4nLCAnLW9tYWUnLCAnPG91dGZpbGUubWFlPic=

> <r_epik_Ionization_Penalty>
  0.8299

> <r_epik_Ionization_Penalty_Charging>
  0.8299

> <r_epik_Ionization_Penalty_Neutral>
  0.0000

> <r_epik_State_Penalty>
  0.0088

> <r_epik_Charging_Adjusted_Penalty>
0.838654

> <i_epik_Tot_Q>
2

> <i_epik_Tot_abs_Q>
2

> <s_lp_Force_Field>
S-OPLS

> <r_lp_Energy>
105.039

> <b_lp_Chiralities_Consistent>
1

> <s_lp_Variant>
N#CC[C@@H]1N(C(C=C)=O)CCN(C2=C3C(CN(C4=C5C(C)=CC=CC5=CC=C4)CC3)=NC(OC[C@H]6N(...-1

> <s_i_glide_gridfile>
glide-grid_1

> <i_i_glide_lignum>
2384

> <i_i_glide_rotatable_bonds>
8

> <r_i_docking_score>
-7.21553750056152

> <r_i_glide_ligand_efficiency>
-0.171798511918131

> <r_i_glide_ligand_efficiency_sa>
-0.597176204235252

> <r_i_glide_ligand_efficiency_ln>
-1.52301407272379

> <r_i_glide_gscore>
-7.22433750056152

> <r_i_glide_lipo>
-2.83856382203599

> <r_i_glide_hbond>
-0.0826502494032586

> <r_i_glide_metal>
0

> <r_i_glide_rewards>
-1.3435647188409

> <r_i_glide_evdw>
-38.8311996459961

> <r_i_glide_ecoul>
-9.38931179046631

> <r_i_glide_erotb>
0.42949675581088

> <r_i_glide_esite>
-0.0390987152225026

> <r_i_glide_emodel>
-71.0782759221372

> <r_i_glide_energy>
-48.2205114364624

> <r_i_glide_einternal>
8.28600215911865

> <i_i_glide_confnum>
50

> <i_i_glide_posenum>
264

> <r_i_glide_eff_state_penalty>
0.0088

> <r_lp_tautomer_probability>
0.999666

> <s_m_subgroup_title>
glide-dock_SP_top1262_2_pv

> <s_m_subgroupid>
glide-dock_SP_top1262_2_pv

> <b_m_subgroup_collapsed>
0

$$$$
O=C1N(C2=CC=C(C(C)(C#N)C)C=C2)C3=C4C(C=CC(C5=CN=C(C=CC=C6)C6=C5)=C4)=NC=C3CO1
                    3D
 Schrodinger Suite 2021-3.
  0  0  0     0  0            999 V3000
M  V30 BEGIN CTAB
M  V30 COUNTS 58 63 0 0 0
M  V30 BEGIN ATOM
M  V30 1 N  21.6875 41.3425 89.8238 0
M  V30 2 C  21.8697 41.4148 88.6824 0
M  V30 3 C  22.0986 41.5046 87.2251 0
M  V30 4 C  20.8873 40.8471 86.5233 0
M  V30 5 C  22.1637 43.0057 86.8664 0
M  V30 6 C  23.4011 40.7873 86.8090 0
M  V30 7 C  23.8369 40.8745 85.4803 0
M  V30 8 C  24.9857 40.2110 85.0668 0
M  V30 9 C  24.1603 40.0379 87.7225 0
M  V30 10 C  25.3070 39.3648 87.3097 0
M  V30 11 C  25.7048 39.4281 85.9692 0
M  V30 12 N  26.8130 38.6842 85.5146 0
M  V30 13 C  28.0912 39.1499 85.8975 0
M  V30 14 O  28.3296 39.9608 86.7938 0
M  V30 15 O  29.1714 38.6238 85.2435 0
M  V30 16 C  29.0183 38.0988 83.9226 0
M  V30 17 C  27.7106 37.3497 83.7092 0
M  V30 18 C  27.5915 36.3564 82.7423 0
M  V30 19 N  26.4410 35.7225 82.4463 0
M  V30 20 C  25.3507 35.9951 83.2001 0
M  V30 21 C  25.3881 36.8926 84.3177 0
M  V30 22 C  26.6125 37.6486 84.5376 0
M  V30 23 C  24.1441 35.3566 82.8336 0
M  V30 24 C  22.9922 35.5568 83.5780 0
M  V30 25 C  23.0216 36.3315 84.7324 0
M  V30 26 C  24.2032 36.9660 85.1095 0
M  V30 27 C  21.8053 36.4811 85.5535 0
M  V30 28 C  21.7297 35.9516 86.8432 0
M  V30 29 N  20.6337 36.0337 87.6355 0
M  V30 30 C  20.6968 37.1605 85.0521 0
M  V30 31 C  19.5412 37.2943 85.8515 0
M  V30 32 C  19.5468 36.6908 87.1477 0
M  V30 33 C  18.3943 37.9943 85.4116 0
M  V30 34 C  17.2830 38.0825 86.2418 0
M  V30 35 C  17.2769 37.4722 87.4919 0
M  V30 36 C  18.3860 36.7672 87.9467 0
M  V30 37 H  20.8009 39.7929 86.7889 0
M  V30 38 H  19.9501 41.3306 86.8072 0
M  V30 39 H  20.9608 40.9066 85.4365 0
M  V30 40 H  23.0408 43.4847 87.3035 0
M  V30 41 H  22.1941 43.1829 85.7906 0
M  V30 42 H  21.2886 43.5351 87.2442 0
M  V30 43 H  23.2801 41.4501 84.7556 0
M  V30 44 H  25.3080 40.2839 84.0434 0
M  V30 45 H  23.8696 39.9538 88.7586 0
M  V30 46 H  25.8680 38.7753 88.0209 0
M  V30 47 H  29.0558 38.9399 83.2298 0
M  V30 48 H  29.8712 37.4638 83.6802 0
M  V30 49 H  28.4318 36.0934 82.1136 0
M  V30 50 H  24.1105 34.7179 81.9648 0
M  V30 51 H  22.0809 35.0580 83.2781 0
M  V30 52 H  24.1752 37.5355 86.0177 0
M  V30 53 H  22.5661 35.4116 87.2606 0
M  V30 54 H  20.7176 37.5985 84.0639 0
M  V30 55 H  18.3882 38.4590 84.4366 0
M  V30 56 H  16.4103 38.6324 85.9191 0
M  V30 57 H  16.3994 37.5568 88.1176 0
M  V30 58 H  18.3698 36.2872 88.9129 0
M  V30 END ATOM
M  V30 BEGIN BOND
M  V30 1 3 1 2
M  V30 2 1 2 3
M  V30 3 1 3 4
M  V30 4 1 3 5
M  V30 5 1 3 6
M  V30 6 1 4 37
M  V30 7 1 4 38
M  V30 8 1 4 39
M  V30 9 1 5 40
M  V30 10 1 5 41
M  V30 11 1 5 42
M  V30 12 2 6 7
M  V30 13 1 6 9
M  V30 14 1 7 8
M  V30 15 1 7 43
M  V30 16 2 8 11
M  V30 17 1 8 44
M  V30 18 2 9 10
M  V30 19 1 9 45
M  V30 20 1 10 11
M  V30 21 1 10 46
M  V30 22 1 11 12
M  V30 23 1 12 13
M  V30 24 1 12 22
M  V30 25 2 13 14
M  V30 26 1 13 15
M  V30 27 1 15 16
M  V30 28 1 16 17
M  V30 29 1 16 47
M  V30 30 1 16 48
M  V30 31 2 17 18
M  V30 32 1 17 22
M  V30 33 1 18 19
M  V30 34 1 18 49
M  V30 35 2 19 20
M  V30 36 1 20 21
M  V30 37 1 20 23
M  V30 38 2 21 22
M  V30 39 1 21 26
M  V30 40 2 23 24
M  V30 41 1 23 50
M  V30 42 1 24 25
M  V30 43 1 24 51
M  V30 44 2 25 26
M  V30 45 1 25 27
M  V30 46 1 26 52
M  V30 47 2 27 28
M  V30 48 1 27 30
M  V30 49 1 28 29
M  V30 50 1 28 53
M  V30 51 2 29 32
M  V30 52 2 30 31
M  V30 53 1 30 54
M  V30 54 1 31 32
M  V30 55 1 31 33
M  V30 56 1 32 36
M  V30 57 2 33 34
M  V30 58 1 33 55
M  V30 59 1 34 35
M  V30 60 1 34 56
M  V30 61 2 35 36
M  V30 62 1 35 57
M  V30 63 1 36 58
M  V30 END BOND
M  V30 END CTAB
M  END
> <s_m_entry_id>
1571

> <s_m_entry_name>
result.6579

> <s_m_Source_Path>
D:\OneDrive - zju.edu.cn\DOC\A-Finished\LCK_VS\Planet\LCK-8617

> <s_m_Source_File>
glide-dock_SP_top1262_2_pv.maegz

> <i_m_Source_File_Index>
1571

> <PLANET_affinity>
7.555

> <i_lp_mmshare_version>
54117

> <i_f3d_flags>
0

> <s_epik_input>
TiNDQyhbQ0gzXSkoW0NIM10pYzFbY0hdW2NIXWMoW2NIXVtjSF0xKU4oQyg9TylPW0NIMl0yKWMoYzIzKWM0YyhuW2NIXTMpW2NIXVtjSF1jKFtjSF00KS1jKFtjSF01KVtjSF1uYyhjNTYpW2NIXVtjSF1bY0hdW2NIXTY=

> <s_epik_cmdline>
J2VwaWtfcHl0aG9uJywgJy1waCcsICc3LjAnLCAnLXRuJywgJzgnLCAnLW1hJywgJzUwMCcsICctaW1hZScsICc8aW5maWxlLm1hZT4nLCAnLW9tYWUnLCAnPG91dGZpbGUubWFlPic=

> <r_epik_Ionization_Penalty>
  0.0041

> <r_epik_Ionization_Penalty_Charging>
  0.0000

> <r_epik_Ionization_Penalty_Neutral>
  0.0041

> <r_epik_State_Penalty>
  0.0000

> <r_epik_Charging_Adjusted_Penalty>
0

> <i_epik_Tot_Q>
0

> <i_epik_Tot_abs_Q>
0

> <s_epik_Chemistry_Notes>
This compound has an ester and may undergo hydrolysis at high or low pH.

> <s_lp_Force_Field>
S-OPLS

> <r_lp_Energy>
78.4819

> <b_lp_Chiralities_Consistent>
1

> <s_lp_Variant>
O=C1N(C2=CC=C(C(C)(C#N)C)C=C2)C3=C4C(C=CC(C5=CN=C(C=CC=C6)C6=C5)=C4)=NC=C3CO1-1

> <s_i_glide_gridfile>
glide-grid_1

> <i_i_glide_lignum>
1858

> <i_i_glide_rotatable_bonds>
3

> <r_i_docking_score>
-7.21374188774781

> <r_i_glide_ligand_efficiency>
-0.200381719104106

> <r_i_glide_ligand_efficiency_sa>
-0.661645857699856

> <r_i_glide_ligand_efficiency_ln>
-1.5738435871234

> <r_i_glide_gscore>
-7.21374188774781

> <r_i_glide_lipo>
-4.04309996042666

> <r_i_glide_hbond>
-0.0497335708840982

> <r_i_glide_metal>
0

> <r_i_glide_rewards>
-0.59443178594974

> <r_i_glide_evdw>
-51.2391510009766

> <r_i_glide_ecoul>
-1.33852708339691

> <r_i_glide_erotb>
0.273801751127928

> <r_i_glide_esite>
-0.0375417090568707

> <r_i_glide_emodel>
-72.3270390524047

> <r_i_glide_energy>
-52.5776780843735

> <r_i_glide_einternal>
4.40678310394287

> <i_i_glide_confnum>
3

> <i_i_glide_posenum>
17

> <r_i_glide_eff_state_penalty>
0

> <r_lp_tautomer_probability>
1

> <s_m_subgroup_title>
glide-dock_SP_top1262_2_pv

> <s_m_subgroupid>
glide-dock_SP_top1262_2_pv

> <b_m_subgroup_collapsed>
0

$$$$
CN1CC(N(CC2=CC(CCCN3C(NC4=CC(NCCOC)=C(C#N)C=N4)=O)=C3N=C2C=O)CC1)=O
                    3D
 Schrodinger Suite 2021-3.
  0  0  0     0  0            999 V3000
M  V30 BEGIN CTAB
M  V30 COUNTS 68 71 0 0 0
M  V30 BEGIN ATOM
M  V30 1 C  34.1530 40.0184 80.6896 0
M  V30 2 N  33.3292 40.0946 81.9963 0 CHG=1 CFG=1
M  V30 3 C  31.8774 40.5118 81.6733 0
M  V30 4 C  30.8761 40.3564 82.8434 0
M  V30 5 O  29.7610 40.8816 82.7765 0
M  V30 6 N  31.2590 39.5735 83.9005 0
M  V30 7 C  32.5853 38.9336 84.0564 0
M  V30 8 C  33.3392 38.7495 82.7296 0
M  V30 9 C  30.3481 39.4688 85.0541 0
M  V30 10 C  29.0662 38.6533 84.8197 0
M  V30 11 C  29.0690 37.5911 83.9053 0
M  V30 12 C  27.8504 38.9548 85.4580 0
M  V30 13 C  27.7045 40.0440 86.4709 0
M  V30 14 O  26.6316 40.4433 86.9301 0
M  V30 15 N  26.7276 38.2371 85.2124 0
M  V30 16 C  26.7502 37.1567 84.3777 0
M  V30 17 C  27.9232 36.8246 83.6645 0
M  V30 18 N  25.5411 36.3953 84.1857 0
M  V30 19 C  25.6209 35.0525 83.5657 0
M  V30 20 C  26.5495 35.1706 82.3534 0
M  V30 21 C  27.9663 35.6216 82.7365 0
M  V30 22 C  24.3911 36.6485 84.8802 0
M  V30 23 O  24.3977 37.0272 86.0460 0
M  V30 24 N  23.2323 36.5026 84.2002 0
M  V30 25 C  21.9913 37.0703 84.5363 0
M  V30 26 C  21.8492 38.2442 85.2977 0
M  V30 27 C  20.5704 38.7741 85.5488 0
M  V30 28 C  19.4590 38.0856 85.0125 0
M  V30 29 C  18.0797 38.5330 85.1472 0
M  V30 30 N  16.9822 38.8817 85.2430 0
M  V30 31 C  19.6860 36.9217 84.2765 0
M  V30 32 N  20.9195 36.4193 84.0346 0
M  V30 33 N  20.4126 39.9629 86.2973 0
M  V30 34 C  21.5568 40.7459 86.7659 0
M  V30 35 C  21.1860 42.0515 87.4821 0
M  V30 36 O  20.5470 41.7977 88.7271 0
M  V30 37 C  20.1733 42.9989 89.3921 0
M  V30 38 H  33.7103 39.2556 80.0445 0
M  V30 39 H  34.1135 41.0046 80.2207 0
M  V30 40 H  35.1780 39.7637 80.9624 0
M  V30 41 H  31.5284 39.9317 80.8164 0
M  V30 42 H  31.9370 41.5564 81.3949 0
M  V30 43 H  33.1925 39.4810 84.7820 0
M  V30 44 H  32.4204 37.9343 84.4677 0
M  V30 45 H  32.8963 37.9836 82.0866 0
M  V30 46 H  34.3860 38.4934 82.9019 0
M  V30 47 H  30.0947 40.4859 85.3521 0
M  V30 48 H  30.8675 39.0356 85.9118 0
M  V30 49 H  29.9805 37.3280 83.3869 0
M  V30 50 H  28.6370 40.4917 86.8136 0
M  V30 51 H  26.0828 34.3729 84.2867 0
M  V30 52 H  24.6598 34.6407 83.2512 0
M  V30 53 H  26.6140 34.2100 81.8478 0
M  V30 54 H  26.1119 35.8712 81.6435 0
M  V30 55 H  28.4881 34.8074 83.2429 0
M  V30 56 H  28.5488 35.8468 81.8437 0
M  V30 57 H  23.2587 36.0315 83.3092 0
M  V30 58 H  22.7245 38.7567 85.6624 0
M  V30 59 H  18.8705 36.3600 83.8390 0
M  V30 60 H  19.4817 40.3005 86.5181 0
M  V30 61 H  22.1729 40.9880 85.8969 0
M  V30 62 H  22.1874 40.1328 87.4132 0
M  V30 63 H  20.5554 42.6593 86.8359 0
M  V30 64 H  22.0991 42.6188 87.6643 0
M  V30 65 H  19.7644 42.7581 90.3720 0
M  V30 66 H  19.4054 43.5466 88.8438 0
M  V30 67 H  21.0274 43.6617 89.5449 0
M  V30 68 H  33.7303 40.7987 82.6068 0
M  V30 END ATOM
M  V30 BEGIN BOND
M  V30 1 1 1 2
M  V30 2 1 1 38
M  V30 3 1 1 39
M  V30 4 1 1 40
M  V30 5 1 2 3
M  V30 6 1 2 8
M  V30 7 1 2 68
M  V30 8 1 3 4
M  V30 9 1 3 41
M  V30 10 1 3 42
M  V30 11 2 4 5
M  V30 12 1 4 6
M  V30 13 1 6 7
M  V30 14 1 6 9
M  V30 15 1 7 8
M  V30 16 1 7 43
M  V30 17 1 7 44
M  V30 18 1 8 45
M  V30 19 1 8 46
M  V30 20 1 9 10
M  V30 21 1 9 47
M  V30 22 1 9 48
M  V30 23 2 10 11
M  V30 24 1 10 12
M  V30 25 1 11 17
M  V30 26 1 11 49
M  V30 27 1 12 13
M  V30 28 2 12 15
M  V30 29 2 13 14
M  V30 30 1 13 50
M  V30 31 1 15 16
M  V30 32 2 16 17
M  V30 33 1 16 18
M  V30 34 1 17 21
M  V30 35 1 18 19
M  V30 36 1 18 22
M  V30 37 1 19 20
M  V30 38 1 19 51
M  V30 39 1 19 52
M  V30 40 1 20 21
M  V30 41 1 20 53
M  V30 42 1 20 54
M  V30 43 1 21 55
M  V30 44 1 21 56
M  V30 45 2 22 23
M  V30 46 1 22 24
M  V30 47 1 24 25
M  V30 48 1 24 57
M  V30 49 2 25 26
M  V30 50 1 25 32
M  V30 51 1 26 27
M  V30 52 1 26 58
M  V30 53 2 27 28
M  V30 54 1 27 33
M  V30 55 1 28 29
M  V30 56 1 28 31
M  V30 57 3 29 30
M  V30 58 2 31 32
M  V30 59 1 31 59
M  V30 60 1 33 34
M  V30 61 1 33 60
M  V30 62 1 34 35
M  V30 63 1 34 61
M  V30 64 1 34 62
M  V30 65 1 35 36
M  V30 66 1 35 63
M  V30 67 1 35 64
M  V30 68 1 36 37
M  V30 69 1 37 65
M  V30 70 1 37 66
M  V30 71 1 37 67
M  V30 END BOND
M  V30 END CTAB
M  END
> <s_m_entry_id>
1580

> <s_m_entry_name>
result.4624

> <s_m_Source_Path>
D:\OneDrive - zju.edu.cn\DOC\A-Finished\LCK_VS\Planet\LCK-8617

> <s_m_Source_File>
glide-dock_SP_top1262_2_pv.maegz

> <i_m_Source_File_Index>
1580

> <PLANET_affinity>
9.529

> <i_lp_mmshare_version>
54117

> <i_f3d_flags>
0

> <s_epik_input>
W0NIM11OMVtDSDJdQyg9TylOKFtDSDJdW0NIMl0xKVtDSDJdYyhjKG4yKVtDSF09TylbY0hdYyhjMjMpW0NIMl1bQ0gyXVtDSDJdTjNDKD1PKVtOSF1jNFtjSF1jKGMoQyNOKVtjSF1uNClbTkhdW0NIMl1bQ0gyXU9bQ0gzXQ==

> <s_epik_cmdline>
J2VwaWtfcHl0aG9uJywgJy1waCcsICc3LjAnLCAnLXRuJywgJzgnLCAnLW1hJywgJzUwMCcsICctaW1hZScsICc8aW5maWxlLm1hZT4nLCAnLW9tYWUnLCAnPG91dGZpbGUubWFlPic=

> <r_epik_Ionization_Penalty>
  0.1542

> <r_epik_Ionization_Penalty_Charging>
  0.1540

> <r_epik_Ionization_Penalty_Neutral>
  0.0001

> <r_epik_State_Penalty>
  0.1433

> <r_epik_Charging_Adjusted_Penalty>
0.297331

> <i_epik_Tot_Q>
1

> <i_epik_Tot_abs_Q>
1

> <s_lp_Force_Field>
S-OPLS

> <r_lp_Energy>
90.3103

> <b_lp_Chiralities_Consistent>
1

> <s_lp_Variant>
CN1CC(N(CC2=CC(CCCN3C(NC4=CC(NCCOC)=C(C#N)C=N4)=O)=C3N=C2C=O)CC1)=O-2

> <s_i_glide_gridfile>
glide-grid_1

> <i_i_glide_lignum>
333

> <i_i_glide_rotatable_bonds>
10

> <r_i_docking_score>
-7.20960300410855

> <r_i_glide_ligand_efficiency>
-0.194854135246177

> <r_i_glide_ligand_efficiency_sa>
-0.649297206569367

> <r_i_glide_ligand_efficiency_ln>
-1.56359387451642

> <r_i_glide_gscore>
-7.35290300410855

> <r_i_glide_lipo>
-2.4395936669345

> <r_i_glide_hbond>
-0.76

> <r_i_glide_metal>
0

> <r_i_glide_rewards>
-1.08819523464814

> <r_i_glide_evdw>
-45.0605888366699

> <r_i_glide_ecoul>
-9.34732341766357

> <r_i_glide_erotb>
0.635582466708039

> <r_i_glide_esite>
-0.0455686147509222

> <r_i_glide_emodel>
-74.867037542101

> <r_i_glide_energy>
-54.4079122543335

> <r_i_glide_einternal>
14.9311828613281

> <i_i_glide_confnum>
58

> <i_i_glide_posenum>
267

> <r_i_glide_eff_state_penalty>
0.1433

> <s_m_subgroup_title>
glide-dock_SP_top1262_2_pv

> <s_m_subgroupid>
glide-dock_SP_top1262_2_pv

> <b_m_subgroup_collapsed>
0

$$$$
FC(F)(F)CC(S1)=CC2=C1N=CN=C2NC3CCN(CC4=CC=C(N(CC5=CNN=C5)C(C#N)=C6)C6=C4C)CC3
                    3D
 Schrodinger Suite 2021-3.
  0  0  0     0  0            999 V3000
M  V30 BEGIN CTAB
M  V30 COUNTS 68 73 0 0 0
M  V30 BEGIN ATOM
M  V30 1 F  24.3393 40.5391 93.6437 0
M  V30 2 C  23.0787 40.9042 93.4213 0
M  V30 3 F  22.2801 40.0369 94.0429 0
M  V30 4 F  22.8826 40.7703 92.1076 0
M  V30 5 C  22.8337 42.3493 93.9110 0
M  V30 6 C  21.6829 43.0253 93.1923 0
M  V30 7 C  21.7697 43.8744 92.1073 0
M  V30 8 S  20.0096 42.7451 93.6433 0
M  V30 9 C  19.4442 43.6660 92.2672 0
M  V30 10 C  20.5198 44.1862 91.4871 0
M  V30 11 N  18.1479 43.7965 91.9768 0
M  V30 12 C  17.9051 44.4836 90.8355 0
M  V30 13 N  18.8199 45.0034 89.9867 0
M  V30 14 C  20.1347 44.8489 90.2828 0
M  V30 15 N  20.9888 45.3333 89.2680 0
M  V30 16 C  22.4322 45.0936 89.2188 0 CFG=2
M  V30 17 C  23.0692 45.9325 88.0851 0
M  V30 18 C  22.7431 45.4121 86.6674 0
M  V30 19 N  23.1231 43.9142 86.5819 0 CHG=1 CFG=1
M  V30 20 C  22.3500 43.0826 87.6297 0
M  V30 21 C  22.7519 43.5912 89.0153 0
M  V30 22 C  22.9032 43.3278 85.1684 0
M  V30 23 C  23.6038 41.9798 85.0064 0
M  V30 24 C  22.8344 40.8207 85.1272 0
M  V30 25 C  23.3954 39.5474 85.1032 0
M  V30 26 C  24.9906 41.8993 84.7776 0
M  V30 27 C  25.8392 43.1559 84.6431 0
M  V30 28 C  25.5750 40.6228 84.6844 0
M  V30 29 C  24.7748 39.4609 84.8856 0
M  V30 30 C  26.8987 40.1621 84.4076 0
M  V30 31 C  26.8941 38.7860 84.4790 0
M  V30 32 C  28.0063 37.8755 84.2387 0
M  V30 33 N  28.8901 37.1565 84.0436 0
M  V30 34 N  25.6224 38.3613 84.8421 0
M  V30 35 C  25.2089 36.9926 85.1664 0
M  V30 36 C  24.4663 36.2955 84.0573 0
M  V30 37 C  23.1237 35.9548 84.0033 0
M  V30 38 N  22.9603 35.2533 82.8415 0
M  V30 39 N  24.0834 35.1567 82.1318 0
M  V30 40 C  24.9795 35.7803 82.8569 0
M  V30 41 H  23.7354 42.9221 93.6920 0
M  V30 42 H  22.7397 42.3757 94.9956 0
M  V30 43 H  22.7327 44.1695 91.7290 0
M  V30 44 H  16.8692 44.6140 90.5548 0
M  V30 45 H  20.5154 45.3944 88.3689 0
M  V30 46 H  22.8535 45.4573 90.1549 0
M  V30 47 H  24.1508 45.9635 88.2189 0
M  V30 48 H  22.7377 46.9694 88.1631 0
M  V30 49 H  23.3033 45.9397 85.8936 0
M  V30 50 H  21.6829 45.4896 86.4434 0
M  V30 51 H  21.2824 43.2024 87.4259 0
M  V30 52 H  22.6258 42.0353 87.5116 0
M  V30 53 H  22.2474 42.9614 89.7430 0
M  V30 54 H  23.8169 43.4191 89.1766 0
M  V30 55 H  23.2852 44.0566 84.4524 0
M  V30 56 H  21.8211 43.2716 85.0261 0
M  V30 57 H  21.7692 40.9061 85.2929 0
M  V30 58 H  22.7814 38.6695 85.2396 0
M  V30 59 H  25.7214 43.5593 83.6434 0
M  V30 60 H  25.5588 43.9267 85.3586 0
M  V30 61 H  26.8970 42.9503 84.8102 0
M  V30 62 H  27.7667 40.7652 84.1821 0
M  V30 63 H  24.6094 37.0350 86.0767 0
M  V30 64 H  26.0831 36.4099 85.4372 0
M  V30 65 H  22.3042 36.0994 84.6920 0
M  V30 66 H  22.1012 34.8126 82.5313 0
M  V30 67 H  26.0094 35.8472 82.5349 0
M  V30 68 H  24.1084 43.8306 86.7880 0
M  V30 END ATOM
M  V30 BEGIN BOND
M  V30 1 1 1 2
M  V30 2 1 2 3
M  V30 3 1 2 4
M  V30 4 1 2 5
M  V30 5 1 5 6
M  V30 6 1 5 41
M  V30 7 1 5 42
M  V30 8 2 6 7
M  V30 9 1 6 8
M  V30 10 1 7 10
M  V30 11 1 7 43
M  V30 12 1 8 9
M  V30 13 2 9 10
M  V30 14 1 9 11
M  V30 15 1 10 14
M  V30 16 2 11 12
M  V30 17 1 12 13
M  V30 18 1 12 44
M  V30 19 2 13 14
M  V30 20 1 14 15
M  V30 21 1 15 16
M  V30 22 1 15 45
M  V30 23 1 16 17
M  V30 24 1 16 21
M  V30 25 1 16 46
M  V30 26 1 17 18
M  V30 27 1 17 47
M  V30 28 1 17 48
M  V30 29 1 18 19
M  V30 30 1 18 49
M  V30 31 1 18 50
M  V30 32 1 19 20
M  V30 33 1 19 22
M  V30 34 1 19 68
M  V30 35 1 20 21
M  V30 36 1 20 51
M  V30 37 1 20 52
M  V30 38 1 21 53
M  V30 39 1 21 54
M  V30 40 1 22 23
M  V30 41 1 22 55
M  V30 42 1 22 56
M  V30 43 2 23 24
M  V30 44 1 23 26
M  V30 45 1 24 25
M  V30 46 1 24 57
M  V30 47 2 25 29
M  V30 48 1 25 58
M  V30 49 1 26 27
M  V30 50 2 26 28
M  V30 51 1 27 59
M  V30 52 1 27 60
M  V30 53 1 27 61
M  V30 54 1 28 29
M  V30 55 1 28 30
M  V30 56 1 29 34
M  V30 57 2 30 31
M  V30 58 1 30 62
M  V30 59 1 31 32
M  V30 60 1 31 34
M  V30 61 3 32 33
M  V30 62 1 34 35
M  V30 63 1 35 36
M  V30 64 1 35 63
M  V30 65 1 35 64
M  V30 66 2 36 37
M  V30 67 1 36 40
M  V30 68 1 37 38
M  V30 69 1 37 65
M  V30 70 1 38 39
M  V30 71 1 38 66
M  V30 72 2 39 40
M  V30 73 1 40 67
M  V30 END BOND
M  V30 END CTAB
M  END
> <s_m_entry_id>
1587

> <s_m_entry_name>
result.1606

> <s_m_Source_Path>
D:\OneDrive - zju.edu.cn\DOC\A-Finished\LCK_VS\Planet\LCK-8617

> <s_m_Source_File>
glide-dock_SP_top1262_2_pv.maegz

> <i_m_Source_File_Index>
1587

> <PLANET_affinity>
8.619

> <i_lp_mmshare_version>
54117

> <i_f3d_flags>
0

> <s_epik_input>
RkMoRikoRilbQ0gyXWMoczEpW2NIXWMoYzEyKWMobltjSF1uMilbTkhdW0NIXTNbQ0gyXVtDSDJdTihbQ0gyXVtDSDJdMylbQ0gyXWMoYzRbQ0gzXSlbY0hdW2NIXWMoYzQ1KW4oYyhbY0hdNSlDI04pW0NIMl1jNltjSF1bbkhdbltjSF02

> <s_epik_cmdline>
J2VwaWtfcHl0aG9uJywgJy1waCcsICc3LjAnLCAnLXRuJywgJzgnLCAnLW1hJywgJzUwMCcsICctaW1hZScsICc8aW5maWxlLm1hZT4nLCAnLW9tYWUnLCAnPG91dGZpbGUubWFlPic=

> <r_epik_Ionization_Penalty>
  0.1501

> <r_epik_Ionization_Penalty_Charging>
  0.1500

> <r_epik_Ionization_Penalty_Neutral>
  0.0001

> <r_epik_State_Penalty>
  0.1393

> <r_epik_Charging_Adjusted_Penalty>
0.28939

> <i_epik_Tot_Q>
1

> <i_epik_Tot_abs_Q>
1

> <s_lp_Force_Field>
S-OPLS

> <r_lp_Energy>
49.7838

> <b_lp_Chiralities_Consistent>
1

> <s_lp_Variant>
FC(F)(F)CC(S1)=CC2=C1N=CN=C2NC3CCN(CC4=CC=C(N(CC5=CNN=C5)C(C#N)=C6)C6=C4C)CC3-2

> <s_i_glide_gridfile>
glide-grid_1

> <i_i_glide_lignum>
720

> <i_i_glide_rotatable_bonds>
8

> <r_i_docking_score>
-7.20559875521748

> <r_i_glide_ligand_efficiency>
-0.180139968880437

> <r_i_glide_ligand_efficiency_sa>
-0.616070026883736

> <r_i_glide_ligand_efficiency_ln>
-1.5367421631826

> <r_i_glide_gscore>
-7.34489875521748

> <r_i_glide_lipo>
-1.89780881236692

> <r_i_glide_hbond>
-0.459939860755482

> <r_i_glide_metal>
0

> <r_i_glide_rewards>
-1.99965983175236

> <r_i_glide_evdw>
-42.1238288879395

> <r_i_glide_ecoul>
-6.36019086837769

> <r_i_glide_erotb>
0.25905545475374

> <r_i_glide_esite>
-0.186325630442833

> <r_i_glide_emodel>
-67.9376591482635

> <r_i_glide_energy>
-48.4840197563171

> <r_i_glide_einternal>
11.0840358734131

> <i_i_glide_confnum>
176

> <i_i_glide_posenum>
86

> <r_i_glide_eff_state_penalty>
0.1393

> <r_lp_tautomer_probability>
0.5

> <s_m_subgroup_title>
glide-dock_SP_top1262_2_pv

> <s_m_subgroupid>
glide-dock_SP_top1262_2_pv

> <b_m_subgroup_collapsed>
0

$$$$
NC1=NC(Cl)=CC(NC2=CC(F)=C(OC3=C4C(NC=C4C)=NC=C3)C(F)=C2)=N1
                    3D
 Schrodinger Suite 2021-3.
  0  0  0     0  0            999 V3000
M  V30 BEGIN CTAB
M  V30 COUNTS 41 44 0 0 0
M  V30 BEGIN ATOM
M  V30 1 N  31.5874 35.5572 82.0437 0
M  V30 2 C  30.5880 36.3309 82.6030 0
M  V30 3 N  30.9628 37.4916 83.1876 0
M  V30 4 C  29.9655 38.2571 83.6965 0
M  V30 5 Cl 30.3659 39.7762 84.4081 0
M  V30 6 C  28.6278 37.8615 83.6427 0
M  V30 7 C  28.3476 36.6220 83.0515 0
M  V30 8 N  29.3241 35.8614 82.5028 0
M  V30 9 N  27.0608 36.0860 82.9350 0
M  V30 10 C  25.8603 36.3246 83.6216 0
M  V30 11 C  25.8031 37.0281 84.8301 0
M  V30 12 C  24.5911 37.2250 85.4831 0
M  V30 13 F  24.5657 37.9565 86.6202 0
M  V30 14 C  23.4157 36.6801 84.9601 0
M  V30 15 C  23.4670 35.9574 83.7653 0
M  V30 16 F  22.3361 35.4338 83.2426 0
M  V30 17 C  24.6819 35.7857 83.0997 0
M  V30 18 O  22.2253 36.8130 85.6351 0
M  V30 19 C  21.5165 37.9952 85.5866 0
M  V30 20 C  21.8796 39.1354 84.8527 0
M  V30 21 C  21.0703 40.2683 84.9059 0
M  V30 22 N  19.9242 40.3564 85.6262 0
M  V30 23 C  19.5961 39.2589 86.3090 0
M  V30 24 C  20.3337 38.0427 86.3518 0
M  V30 25 N  18.4830 39.0964 87.0959 0
M  V30 26 C  18.4936 37.8323 87.6353 0
M  V30 27 C  19.6269 37.1409 87.2294 0
M  V30 28 C  20.0477 35.7395 87.6076 0
M  V30 29 H  32.5063 35.9640 81.9805 0
M  V30 30 H  31.2865 34.8539 81.3793 0
M  V30 31 H  27.8599 38.5217 84.0093 0
M  V30 32 H  27.0493 35.2977 82.3041 0
M  V30 33 H  26.6899 37.4083 85.3075 0
M  V30 34 H  24.6942 35.2307 82.1745 0
M  V30 35 H  22.7808 39.1567 84.2602 0
M  V30 36 H  21.3421 41.1562 84.3523 0
M  V30 37 H  17.7406 39.7719 87.2661 0
M  V30 38 H  17.6801 37.5274 88.2801 0
M  V30 39 H  20.0833 35.0843 86.7385 0
M  V30 40 H  19.3695 35.2799 88.3276 0
M  V30 41 H  21.0463 35.7261 88.0428 0
M  V30 END ATOM
M  V30 BEGIN BOND
M  V30 1 1 1 2
M  V30 2 1 1 29
M  V30 3 1 1 30
M  V30 4 2 2 3
M  V30 5 1 2 8
M  V30 6 1 3 4
M  V30 7 1 4 5
M  V30 8 2 4 6
M  V30 9 1 6 7
M  V30 10 1 6 31
M  V30 11 2 7 8
M  V30 12 1 7 9
M  V30 13 1 9 10
M  V30 14 1 9 32
M  V30 15 2 10 11
M  V30 16 1 10 17
M  V30 17 1 11 12
M  V30 18 1 11 33
M  V30 19 1 12 13
M  V30 20 2 12 14
M  V30 21 1 14 15
M  V30 22 1 14 18
M  V30 23 1 15 16
M  V30 24 2 15 17
M  V30 25 1 17 34
M  V30 26 1 18 19
M  V30 27 2 19 20
M  V30 28 1 19 24
M  V30 29 1 20 21
M  V30 30 1 20 35
M  V30 31 2 21 22
M  V30 32 1 21 36
M  V30 33 1 22 23
M  V30 34 2 23 24
M  V30 35 1 23 25
M  V30 36 1 24 27
M  V30 37 1 25 26
M  V30 38 1 25 37
M  V30 39 2 26 27
M  V30 40 1 26 38
M  V30 41 1 27 28
M  V30 42 1 28 39
M  V30 43 1 28 40
M  V30 44 1 28 41
M  V30 END BOND
M  V30 END CTAB
M  END
> <s_m_entry_id>
1590

> <s_m_entry_name>
result.1501

> <s_m_Source_Path>
D:\OneDrive - zju.edu.cn\DOC\A-Finished\LCK_VS\Planet\LCK-8617

> <s_m_Source_File>
glide-dock_SP_top1262_2_pv.maegz

> <i_m_Source_File_Index>
1590

> <PLANET_affinity>
7.31

> <i_lp_mmshare_version>
54117

> <i_f3d_flags>
0

> <s_epik_input>
W05IMl1jMW5jKENsKVtjSF1jKG4xKVtOSF1jMltjSF1jKEYpYyhjKEYpW2NIXTIpT2MoW2NIXVtjSF1uMyljKGMzNCljKFtDSDNdKVtjSF1bbkhdNA==

> <s_epik_cmdline>
J2VwaWtfcHl0aG9uJywgJy1waCcsICc3LjAnLCAnLXRuJywgJzgnLCAnLW1hJywgJzUwMCcsICctaW1hZScsICc8aW5maWxlLm1hZT4nLCAnLW9tYWUnLCAnPG91dGZpbGUubWFlPic=

> <r_epik_Ionization_Penalty>
  0.0140

> <r_epik_Ionization_Penalty_Charging>
  0.0000

> <r_epik_Ionization_Penalty_Neutral>
  0.0140

> <r_epik_State_Penalty>
  0.0109

> <r_epik_Charging_Adjusted_Penalty>
0.0109178

> <i_epik_Tot_Q>
0

> <i_epik_Tot_abs_Q>
0

> <s_lp_Force_Field>
S-OPLS

> <r_lp_Energy>
27.9988

> <b_lp_Chiralities_Consistent>
1

> <s_lp_Variant>
NC1=NC(Cl)=CC(NC2=CC(F)=C(OC3=C4C(NC=C4C)=NC=C3)C(F)=C2)=N1-1

> <s_i_glide_gridfile>
glide-grid_1

> <i_i_glide_lignum>
2238

> <i_i_glide_rotatable_bonds>
4

> <r_i_docking_score>
-7.2039363614984

> <r_i_glide_ligand_efficiency>
-0.257283441482086

> <r_i_glide_ligand_efficiency_sa>
-0.781264060182941

> <r_i_glide_ligand_efficiency_ln>
-1.66288002899638

> <r_i_glide_gscore>
-7.2148363614984

> <r_i_glide_lipo>
-3.13772091323161

> <r_i_glide_hbond>
-0.379857446277344

> <r_i_glide_metal>
0

> <r_i_glide_rewards>
-1.41427560046164

> <r_i_glide_evdw>
-43.1450233459473

> <r_i_glide_ecoul>
-3.47922801971436

> <r_i_glide_erotb>
0.483916709149748

> <r_i_glide_esite>
-0.0877637404230445

> <r_i_glide_emodel>
-64.8502687194034

> <r_i_glide_energy>
-46.6242513656616

> <r_i_glide_einternal>
6.91393613815308

> <i_i_glide_confnum>
39

> <i_i_glide_posenum>
347

> <r_i_glide_eff_state_penalty>
0.0109

> <r_lp_tautomer_probability>
1

> <s_m_subgroup_title>
glide-dock_SP_top1262_2_pv

> <s_m_subgroupid>
glide-dock_SP_top1262_2_pv

> <b_m_subgroup_collapsed>
0

$$$$
O=C(NC1=NOC(C(C)(C)C(F)(F)F)=C1)NC2=CC=CC(OC3=C(C=C(OC)C(OC)=C4)C4=NC=N3)=C2
                    3D
 Schrodinger Suite 2021-3.
  0  0  0     0  0            999 V3000
M  V30 BEGIN CTAB
M  V30 COUNTS 59 62 0 0 0
M  V30 BEGIN ATOM
M  V30 1 F  22.0810 41.6219 93.5199 0
M  V30 2 C  22.5030 42.8876 93.5697 0
M  V30 3 F  22.8828 43.1137 94.8302 0
M  V30 4 F  23.6141 42.9724 92.8357 0
M  V30 5 C  21.4071 43.8955 93.0887 0
M  V30 6 C  20.0391 43.6154 93.7664 0
M  V30 7 C  21.8701 45.3536 93.3722 0
M  V30 8 C  21.1506 43.7352 91.5983 0
M  V30 9 C  21.4099 42.7584 90.6623 0
M  V30 10 O  20.4019 44.7012 91.0069 0
M  V30 11 N  20.1496 44.3372 89.6890 0
M  V30 12 C  20.7134 43.1648 89.5215 0
M  V30 13 N  20.5306 42.5191 88.3239 0
M  V30 14 C  20.8269 41.2424 88.0434 0
M  V30 15 O  21.4961 40.4897 88.7553 0
M  V30 16 N  20.2535 40.8848 86.8830 0
M  V30 17 C  20.5317 39.7384 86.1326 0
M  V30 18 C  19.4857 39.1613 85.4147 0
M  V30 19 C  19.7361 38.0774 84.5784 0
M  V30 20 C  21.0328 37.5812 84.4440 0
M  V30 21 C  22.1070 38.1480 85.1613 0
M  V30 22 C  21.8287 39.2214 86.0086 0
M  V30 23 O  23.4556 37.8121 85.0908 0
M  V30 24 C  24.0664 36.8558 84.2932 0
M  V30 25 N  23.3026 35.9028 83.7096 0
M  V30 26 C  23.9200 35.0767 82.8431 0
M  V30 27 N  25.2399 35.0511 82.5451 0
M  V30 28 C  26.0141 35.9972 83.1441 0
M  V30 29 C  25.4633 36.9700 84.0308 0
M  V30 30 C  27.3916 36.0309 82.8436 0
M  V30 31 C  28.2123 37.0512 83.3455 0
M  V30 32 O  29.5589 37.1546 83.0423 0
M  V30 33 C  30.1764 36.1575 82.2311 0
M  V30 34 C  27.6508 38.0412 84.1681 0
M  V30 35 C  26.3036 37.9943 84.5310 0
M  V30 36 O  28.3879 39.1290 84.5706 0
M  V30 37 C  29.2917 38.8952 85.6409 0
M  V30 38 H  20.0839 43.5565 94.8435 0
M  V30 39 H  19.3032 44.3820 93.5170 0
M  V30 40 H  19.6183 42.6633 93.4370 0
M  V30 41 H  22.0828 45.5488 94.4235 0
M  V30 42 H  22.7791 45.5898 92.8172 0
M  V30 43 H  21.1194 46.0836 93.0638 0
M  V30 44 H  21.9714 41.8477 90.8063 0
M  V30 45 H  20.0007 43.0536 87.6452 0
M  V30 46 H  19.5022 41.4654 86.5403 0
M  V30 47 H  18.4809 39.5511 85.5011 0
M  V30 48 H  18.9279 37.6314 84.0170 0
M  V30 49 H  21.1470 36.7703 83.7487 0
M  V30 50 H  22.6483 39.6847 86.5387 0
M  V30 51 H  23.2852 34.3559 82.3526 0
M  V30 52 H  27.7788 35.2732 82.1779 0
M  V30 53 H  31.2303 36.4008 82.0974 0
M  V30 54 H  30.1243 35.1729 82.6982 0
M  V30 55 H  29.7245 36.1053 81.2399 0
M  V30 56 H  25.8862 38.7660 85.1618 0
M  V30 57 H  29.9350 39.7661 85.7643 0
M  V30 58 H  28.7476 38.7576 86.5756 0
M  V30 59 H  29.9383 38.0329 85.4708 0
M  V30 END ATOM
M  V30 BEGIN BOND
M  V30 1 1 1 2
M  V30 2 1 2 3
M  V30 3 1 2 4
M  V30 4 1 2 5
M  V30 5 1 5 6
M  V30 6 1 5 7
M  V30 7 1 5 8
M  V30 8 1 6 38
M  V30 9 1 6 39
M  V30 10 1 6 40
M  V30 11 1 7 41
M  V30 12 1 7 42
M  V30 13 1 7 43
M  V30 14 2 8 9
M  V30 15 1 8 10
M  V30 16 1 9 12
M  V30 17 1 9 44
M  V30 18 1 10 11
M  V30 19 2 11 12
M  V30 20 1 12 13
M  V30 21 1 13 14
M  V30 22 1 13 45
M  V30 23 2 14 15
M  V30 24 1 14 16
M  V30 25 1 16 17
M  V30 26 1 16 46
M  V30 27 2 17 18
M  V30 28 1 17 22
M  V30 29 1 18 19
M  V30 30 1 18 47
M  V30 31 2 19 20
M  V30 32 1 19 48
M  V30 33 1 20 21
M  V30 34 1 20 49
M  V30 35 2 21 22
M  V30 36 1 21 23
M  V30 37 1 22 50
M  V30 38 1 23 24
M  V30 39 2 24 25
M  V30 40 1 24 29
M  V30 41 1 25 26
M  V30 42 2 26 27
M  V30 43 1 26 51
M  V30 44 1 27 28
M  V30 45 2 28 29
M  V30 46 1 28 30
M  V30 47 1 29 35
M  V30 48 2 30 31
M  V30 49 1 30 52
M  V30 50 1 31 32
M  V30 51 1 31 34
M  V30 52 1 32 33
M  V30 53 1 33 53
M  V30 54 1 33 54
M  V30 55 1 33 55
M  V30 56 2 34 35
M  V30 57 1 34 36
M  V30 58 1 35 56
M  V30 59 1 36 37
M  V30 60 1 37 57
M  V30 61 1 37 58
M  V30 62 1 37 59
M  V30 END BOND
M  V30 END CTAB
M  END
> <s_m_entry_id>
1594

> <s_m_entry_name>
result.1557

> <s_m_Source_Path>
D:\OneDrive - zju.edu.cn\DOC\A-Finished\LCK_VS\Planet\LCK-8617

> <s_m_Source_File>
glide-dock_SP_top1262_2_pv.maegz

> <i_m_Source_File_Index>
1594

> <PLANET_affinity>
8.265

> <i_lp_mmshare_version>
54117

> <i_f3d_flags>
0

> <s_epik_input>
RkMoRikoRilDKFtDSDNdKShbQ0gzXSljMVtjSF1jKG5vMSlbTkhdQyg9TylbTkhdYzJbY0hdW2NIXVtjSF1jKFtjSF0yKU9jKG5bY0hdbjMpYyhjMzQpW2NIXWMoT1tDSDNdKWMoW2NIXTQpT1tDSDNd

> <s_epik_cmdline>
J2VwaWtfcHl0aG9uJywgJy1waCcsICc3LjAnLCAnLXRuJywgJzgnLCAnLW1hJywgJzUwMCcsICctaW1hZScsICc8aW5maWxlLm1hZT4nLCAnLW9tYWUnLCAnPG91dGZpbGUubWFlPic=

> <r_epik_Ionization_Penalty>
  0.0008

> <r_epik_Ionization_Penalty_Charging>
  0.0000

> <r_epik_Ionization_Penalty_Neutral>
  0.0008

> <r_epik_State_Penalty>
  0.0005

> <r_epik_Charging_Adjusted_Penalty>
0.000451934

> <i_epik_Tot_Q>
0

> <i_epik_Tot_abs_Q>
0

> <s_lp_Force_Field>
S-OPLS

> <r_lp_Energy>
48.2443

> <b_lp_Chiralities_Consistent>
1

> <s_lp_Variant>
O=C(NC1=NOC(C(C)(C)C(F)(F)F)=C1)NC2=CC=CC(OC3=C(C=C(OC)C(OC)=C4)C4=NC=N3)=C2-1

> <s_i_glide_gridfile>
glide-grid_1

> <i_i_glide_lignum>
1008

> <i_i_glide_rotatable_bonds>
10

> <r_i_docking_score>
-7.20248355951796

> <r_i_glide_ligand_efficiency>
-0.19466171782481

> <r_i_glide_ligand_efficiency_sa>
-0.648656029034021

> <r_i_glide_ligand_efficiency_ln>
-1.56204983388818

> <r_i_glide_gscore>
-7.20298355951796

> <r_i_glide_lipo>
-2.4954538062224

> <r_i_glide_hbond>
-0.47740819426402

> <r_i_glide_metal>
0

> <r_i_glide_rewards>
-1.31709945017227

> <r_i_glide_evdw>
-42.2778625488281

> <r_i_glide_ecoul>
-6.61255550384521

> <r_i_glide_erotb>
0.536763341688147

> <r_i_glide_esite>
-0.344008997529227

> <r_i_glide_emodel>
-67.5029509738152

> <r_i_glide_energy>
-48.8904180526733

> <r_i_glide_einternal>
14.7706117630005

> <i_i_glide_confnum>
19

> <i_i_glide_posenum>
244

> <r_i_glide_eff_state_penalty>
0.0005

> <r_lp_tautomer_probability>
1

> <s_m_subgroup_title>
glide-dock_SP_top1262_2_pv

> <s_m_subgroupid>
glide-dock_SP_top1262_2_pv

> <b_m_subgroup_collapsed>
0

$$$$
O=C(C1=CC=C(OCC2CC2)C(OC)=C1)NC3=C(N4C=NC=N4)C=CC(OC(F)(F)F)=C3
                    3D
 Schrodinger Suite 2021-3.
  0  0  0     0  0            999 V3000
M  V30 BEGIN CTAB
M  V30 COUNTS 51 54 0 0 0
M  V30 BEGIN ATOM
M  V30 1 F  32.9114 34.0675 81.6441 0
M  V30 2 C  32.4720 35.2262 82.1306 0
M  V30 3 F  33.0065 35.3771 83.3441 0
M  V30 4 F  32.8861 36.1950 81.3105 0
M  V30 5 O  31.0506 35.1567 82.1890 0
M  V30 6 C  30.3106 36.1924 82.7191 0
M  V30 7 C  28.9385 35.9719 82.8437 0
M  V30 8 C  30.8443 37.4241 83.1259 0
M  V30 9 C  30.0171 38.4149 83.6438 0
M  V30 10 C  28.6436 38.1914 83.7684 0
M  V30 11 N  27.8521 39.2349 84.2848 0
M  V30 12 C  27.0450 39.2508 85.3926 0
M  V30 13 N  26.4351 40.4022 85.5006 0
M  V30 14 C  26.8986 41.0520 84.4445 0
M  V30 15 N  27.7547 40.4186 83.6690 0
M  V30 16 C  28.0872 36.9553 83.3748 0
M  V30 17 N  26.6969 36.7770 83.5382 0
M  V30 18 C  25.8753 35.7683 83.1808 0
M  V30 19 O  26.1973 34.7761 82.5276 0
M  V30 20 C  24.4413 35.9565 83.6124 0
M  V30 21 C  23.4124 35.4021 82.8451 0
M  V30 22 C  22.0830 35.5959 83.2001 0
M  V30 23 C  21.7420 36.3520 84.3212 0
M  V30 24 C  22.7633 36.8449 85.1509 0
M  V30 25 C  24.0995 36.6671 84.7789 0
M  V30 26 O  22.4975 37.5003 86.3296 0
M  V30 27 C  21.9091 36.6879 87.3409 0
M  V30 28 O  20.4042 36.5080 84.6016 0
M  V30 29 C  19.9237 37.8489 84.5807 0
M  V30 30 C  18.3940 37.8074 84.7180 0
M  V30 31 C  17.7697 37.4446 86.0447 0
M  V30 32 C  17.6688 38.8641 85.5173 0
M  V30 33 H  28.5616 35.0119 82.5229 0
M  V30 34 H  31.9002 37.6313 83.0456 0
M  V30 35 H  30.4496 39.3579 83.9468 0
M  V30 36 H  26.9793 38.3962 86.0481 0
M  V30 37 H  26.5869 42.0663 84.2331 0
M  V30 38 H  26.2357 37.5589 83.9736 0
M  V30 39 H  23.6281 34.8246 81.9557 0
M  V30 40 H  21.3087 35.1566 82.5906 0
M  V30 41 H  24.8617 37.0728 85.4286 0
M  V30 42 H  21.8759 37.2469 88.2757 0
M  V30 43 H  20.8862 36.4016 87.0963 0
M  V30 44 H  22.4826 35.7741 87.5218 0
M  V30 45 H  20.3592 38.4244 85.3969 0
M  V30 46 H  20.1954 38.3371 83.6444 0
M  V30 47 H  17.9119 37.4377 83.8120 0
M  V30 48 H  16.8830 36.8102 86.0457 0
M  V30 49 H  18.4202 37.2401 86.8959 0
M  V30 50 H  18.2388 39.6447 86.0250 0
M  V30 51 H  16.7016 39.2247 85.1659 0
M  V30 END ATOM
M  V30 BEGIN BOND
M  V30 1 1 1 2
M  V30 2 1 2 3
M  V30 3 1 2 4
M  V30 4 1 2 5
M  V30 5 1 5 6
M  V30 6 2 6 7
M  V30 7 1 6 8
M  V30 8 1 7 16
M  V30 9 1 7 33
M  V30 10 2 8 9
M  V30 11 1 8 34
M  V30 12 1 9 10
M  V30 13 1 9 35
M  V30 14 1 10 11
M  V30 15 2 10 16
M  V30 16 1 11 12
M  V30 17 1 11 15
M  V30 18 2 12 13
M  V30 19 1 12 36
M  V30 20 1 13 14
M  V30 21 2 14 15
M  V30 22 1 14 37
M  V30 23 1 16 17
M  V30 24 1 17 18
M  V30 25 1 17 38
M  V30 26 2 18 19
M  V30 27 1 18 20
M  V30 28 2 20 21
M  V30 29 1 20 25
M  V30 30 1 21 22
M  V30 31 1 21 39
M  V30 32 2 22 23
M  V30 33 1 22 40
M  V30 34 1 23 24
M  V30 35 1 23 28
M  V30 36 2 24 25
M  V30 37 1 24 26
M  V30 38 1 25 41
M  V30 39 1 26 27
M  V30 40 1 27 42
M  V30 41 1 27 43
M  V30 42 1 27 44
M  V30 43 1 28 29
M  V30 44 1 29 30
M  V30 45 1 29 45
M  V30 46 1 29 46
M  V30 47 1 30 31
M  V30 48 1 30 32
M  V30 49 1 30 47
M  V30 50 1 31 32
M  V30 51 1 31 48
M  V30 52 1 31 49
M  V30 53 1 32 50
M  V30 54 1 32 51
M  V30 END BOND
M  V30 END CTAB
M  END
> <s_m_entry_id>
1608

> <s_m_entry_name>
result.1623

> <s_m_Source_Path>
D:\OneDrive - zju.edu.cn\DOC\A-Finished\LCK_VS\Planet\LCK-8617

> <s_m_Source_File>
glide-dock_SP_top1262_2_pv.maegz

> <i_m_Source_File_Index>
1608

> <PLANET_affinity>
7.886

> <i_lp_mmshare_version>
54117

> <i_f3d_flags>
0

> <s_epik_input>
bjFbY0hdbltjSF1uMS1jKFtjSF1bY0hdMiljKFtjSF1jMk9DKEYpKEYpRilbTkhdQyg9TyljM1tjSF1bY0hdYyhjKFtjSF0zKU9bQ0gzXSlPW0NIMl1bQ0hdNFtDSDJdW0NIMl00

> <s_epik_cmdline>
J2VwaWtfcHl0aG9uJywgJy1waCcsICc3LjAnLCAnLXRuJywgJzgnLCAnLW1hJywgJzUwMCcsICctaW1hZScsICc8aW5maWxlLm1hZT4nLCAnLW9tYWUnLCAnPG91dGZpbGUubWFlPic=

> <r_epik_Ionization_Penalty>
  0.0001

> <r_epik_Ionization_Penalty_Charging>
  0.0000

> <r_epik_Ionization_Penalty_Neutral>
  0.0001

> <r_epik_State_Penalty>
  0.0000

> <r_epik_Charging_Adjusted_Penalty>
0

> <i_epik_Tot_Q>
0

> <i_epik_Tot_abs_Q>
0

> <s_lp_Force_Field>
S-OPLS

> <r_lp_Energy>
47.5726

> <b_lp_Chiralities_Consistent>
1

> <s_lp_Variant>
O=C(C1=CC=C(OCC2CC2)C(OC)=C1)NC3=C(N4C=NC=N4)C=CC(OC(F)(F)F)=C3-1

> <s_i_glide_gridfile>
glide-grid_1

> <i_i_glide_lignum>
1419

> <i_i_glide_rotatable_bonds>
10

> <r_i_docking_score>
-7.19575264443347

> <r_i_glide_ligand_efficiency>
-0.224867270138546

> <r_i_glide_ligand_efficiency_sa>
-0.71390908151755

> <r_i_glide_ligand_efficiency_ln>
-1.61132516589756

> <r_i_glide_gscore>
-7.19575264443347

> <r_i_glide_lipo>
-3.22516011208261

> <r_i_glide_hbond>
-0.578017807739579

> <r_i_glide_metal>
0

> <r_i_glide_rewards>
-1.30563493403587

> <r_i_glide_evdw>
-46.2900543212891

> <r_i_glide_ecoul>
-3.5125629901886

> <r_i_glide_erotb>
0.797079291688737

> <r_i_glide_esite>
-0.0426319176714054

> <r_i_glide_emodel>
-63.2926041162756

> <r_i_glide_energy>
-49.8026173114777

> <r_i_glide_einternal>
14.0010766983032

> <i_i_glide_confnum>
45

> <i_i_glide_posenum>
5

> <r_i_glide_eff_state_penalty>
0

> <r_lp_tautomer_probability>
1

> <s_m_subgroup_title>
glide-dock_SP_top1262_2_pv

> <s_m_subgroupid>
glide-dock_SP_top1262_2_pv

> <b_m_subgroup_collapsed>
0

$$$$
O=S(C1=C(NC2=C(Br)C=NC(NC3=C(OC)C=C(N4CCN(C)CC4)C=C3)=N2)C=CC=C1)(NC)=O
                    3D
 Schrodinger Suite 2021-3.
  0  0  0     0  0            999 V3000
M  V30 BEGIN CTAB
M  V30 COUNTS 64 67 0 0 0
M  V30 BEGIN ATOM
M  V30 1 C  19.5751 37.4707 86.9692 0
M  V30 2 C  19.7228 36.2338 87.5927 0
M  V30 3 C  20.9167 35.5312 87.4594 0
M  V30 4 C  21.9547 36.0725 86.7063 0
M  V30 5 C  21.8115 37.2941 86.0434 0
M  V30 6 C  20.6095 38.0113 86.1933 0
M  V30 7 S  20.2834 39.5938 85.4002 0
M  V30 8 O  21.3550 39.8834 84.4440 0
M  V30 9 O  18.8850 39.5565 84.9548 0
M  V30 10 N  20.4293 40.7815 86.6865 0 CFG=1
M  V30 11 C  19.2826 41.0802 87.5623 0
M  V30 12 N  22.8653 37.7573 85.2403 0
M  V30 13 C  23.8376 37.0177 84.5524 0
M  V30 14 C  23.4888 36.0051 83.6445 0
M  V30 15 Br 21.6831 35.5568 83.2434 0
M  V30 16 C  24.5239 35.4116 82.9247 0
M  V30 17 N  25.8199 35.7924 83.0607 0
M  V30 18 C  26.0638 36.8166 83.9226 0
M  V30 19 N  25.1189 37.4464 84.6669 0
M  V30 20 N  27.3617 37.3075 84.1121 0
M  V30 21 C  28.6582 36.9426 83.6970 0
M  V30 22 C  29.7357 37.6164 84.3001 0
M  V30 23 O  29.4448 38.6056 85.2292 0
M  V30 24 C  30.5046 39.2902 85.8861 0
M  V30 25 C  31.0471 37.2469 83.9604 0
M  V30 26 C  31.3064 36.2319 83.0387 0
M  V30 27 C  30.2265 35.5739 82.4442 0
M  V30 28 C  28.9166 35.9327 82.7598 0
M  V30 29 N  32.6242 35.8677 82.8048 0
M  V30 30 C  33.1463 35.5576 81.4623 0
M  V30 31 C  33.2681 34.0448 81.1609 0
M  V30 32 N  34.1181 33.3722 82.2602 0 CHG=1
M  V30 33 C  34.2418 31.8575 81.9978 0
M  V30 34 C  33.4687 33.6453 83.6356 0
M  V30 35 C  33.4000 35.1737 83.8466 0
M  V30 36 H  18.6388 38.0006 87.0765 0
M  V30 37 H  18.9137 35.8188 88.1780 0
M  V30 38 H  21.0422 34.5743 87.9473 0
M  V30 39 H  22.8928 35.5553 86.6343 0
M  V30 40 H  21.0778 41.5526 86.5043 0
M  V30 41 H  19.5916 41.7942 88.3271 0
M  V30 42 H  18.4843 41.5491 86.9910 0
M  V30 43 H  18.9151 40.1742 88.0408 0
M  V30 44 H  22.7816 38.7227 84.9450 0
M  V30 45 H  24.3056 34.6449 82.1988 0
M  V30 46 H  27.3836 38.0589 84.7874 0
M  V30 47 H  30.0894 39.9994 86.6004 0
M  V30 48 H  31.1414 38.6011 86.4433 0
M  V30 49 H  31.1173 39.8539 85.1800 0
M  V30 50 H  31.8919 37.7399 84.4174 0
M  V30 51 H  30.3971 34.7793 81.7311 0
M  V30 52 H  28.1176 35.4014 82.2692 0
M  V30 53 H  32.4915 36.0040 80.7131 0
M  V30 54 H  34.1148 36.0439 81.3363 0
M  V30 55 H  33.7738 33.8646 80.2096 0
M  V30 56 H  32.2932 33.5549 81.1317 0
M  V30 57 H  33.2416 31.4226 81.9903 0
M  V30 58 H  34.7282 31.7352 81.0276 0
M  V30 59 H  34.8539 31.4352 82.7971 0
M  V30 60 H  34.0986 33.1648 84.3912 0
M  V30 61 H  32.4826 33.1763 83.6471 0
M  V30 62 H  34.4040 35.5984 83.8949 0
M  V30 63 H  32.9519 35.3591 84.8259 0
M  V30 64 H  35.0359 33.7954 82.2602 0
M  V30 END ATOM
M  V30 BEGIN BOND
M  V30 1 2 1 2
M  V30 2 1 1 6
M  V30 3 1 1 36
M  V30 4 1 2 3
M  V30 5 1 2 37
M  V30 6 2 3 4
M  V30 7 1 3 38
M  V30 8 1 4 5
M  V30 9 1 4 39
M  V30 10 2 5 6
M  V30 11 1 5 12
M  V30 12 1 6 7
M  V30 13 2 7 8
M  V30 14 2 7 9
M  V30 15 1 7 10
M  V30 16 1 10 11
M  V30 17 1 10 40
M  V30 18 1 11 41
M  V30 19 1 11 42
M  V30 20 1 11 43
M  V30 21 1 12 13
M  V30 22 1 12 44
M  V30 23 2 13 14
M  V30 24 1 13 19
M  V30 25 1 14 15
M  V30 26 1 14 16
M  V30 27 2 16 17
M  V30 28 1 16 45
M  V30 29 1 17 18
M  V30 30 2 18 19
M  V30 31 1 18 20
M  V30 32 1 20 21
M  V30 33 1 20 46
M  V30 34 2 21 22
M  V30 35 1 21 28
M  V30 36 1 22 23
M  V30 37 1 22 25
M  V30 38 1 23 24
M  V30 39 1 24 47
M  V30 40 1 24 48
M  V30 41 1 24 49
M  V30 42 2 25 26
M  V30 43 1 25 50
M  V30 44 1 26 27
M  V30 45 1 26 29
M  V30 46 2 27 28
M  V30 47 1 27 51
M  V30 48 1 28 52
M  V30 49 1 29 30
M  V30 50 1 29 35
M  V30 51 1 30 31
M  V30 52 1 30 53
M  V30 53 1 30 54
M  V30 54 1 31 32
M  V30 55 1 31 55
M  V30 56 1 31 56
M  V30 57 1 32 33
M  V30 58 1 32 34
M  V30 59 1 32 64
M  V30 60 1 33 57
M  V30 61 1 33 58
M  V30 62 1 33 59
M  V30 63 1 34 35
M  V30 64 1 34 60
M  V30 65 1 34 61
M  V30 66 1 35 62
M  V30 67 1 35 63
M  V30 END BOND
M  V30 END CTAB
M  END
> <s_m_entry_id>
1614

> <s_m_entry_name>
result.69

> <s_m_Source_Path>
D:\OneDrive - zju.edu.cn\DOC\A-Finished\LCK_VS\Planet\LCK-8617

> <s_m_Source_File>
glide-dock_SP_top1262_2_pv.maegz

> <i_m_Source_File_Index>
1614

> <PLANET_affinity>
8.27

> <i_lp_mmshare_version>
54117

> <i_f3d_flags>
0

> <s_epik_input>
W0NIM11bTkhdUyg9TykoPU8pYzFbY0hdW2NIXVtjSF1bY0hdYzFbTkhdYzJjKEJyKVtjSF1uYyhuMilbTkhdYzNjKE9bQ0gzXSlbY0hdYyhbY0hdW2NIXTMpTjRbQ0gyXVtDSDJdTihbQ0gzXSlbQ0gyXVtDSDJdNA==

> <s_epik_cmdline>
J2VwaWtfcHl0aG9uJywgJy1waCcsICc3LjAnLCAnLXRuJywgJzgnLCAnLW1hJywgJzUwMCcsICctaW1hZScsICc8aW5maWxlLm1hZT4nLCAnLW9tYWUnLCAnPG91dGZpbGUubWFlPic=

> <r_epik_Ionization_Penalty>
  0.0696

> <r_epik_Ionization_Penalty_Charging>
  0.0647

> <r_epik_Ionization_Penalty_Neutral>
  0.0048

> <r_epik_State_Penalty>
  0.3473

> <r_epik_Charging_Adjusted_Penalty>
0.412014

> <i_epik_Tot_Q>
1

> <i_epik_Tot_abs_Q>
1

> <s_lp_Force_Field>
S-OPLS

> <r_lp_Energy>
57.611

> <b_lp_Chiralities_Consistent>
1

> <s_lp_Variant>
O=S(C1=C(NC2=C(Br)C=NC(NC3=C(OC)C=C(N4CCN(C)CC4)C=C3)=N2)C=CC=C1)(NC)=O-1

> <s_i_glide_gridfile>
glide-grid_1

> <i_i_glide_lignum>
1004

> <i_i_glide_rotatable_bonds>
8

> <r_i_docking_score>
-7.19184302720993

> <r_i_glide_ligand_efficiency>
-0.205481229348855

> <r_i_glide_ligand_efficiency_sa>
-0.672142725902608

> <r_i_glide_ligand_efficiency_ln>
-1.57876915882877

> <r_i_glide_gscore>
-7.53914302720993

> <r_i_glide_lipo>
-3.22455202136813

> <r_i_glide_hbond>
0

> <r_i_glide_metal>
0

> <r_i_glide_rewards>
-0.800218662630351

> <r_i_glide_evdw>
-51.7234573364258

> <r_i_glide_ecoul>
-7.88780736923218

> <r_i_glide_erotb>
0.309970405460769

> <r_i_glide_esite>
-0.0549987764661047

> <r_i_glide_emodel>
-84.3739718659662

> <r_i_glide_energy>
-59.611264705658

> <r_i_glide_einternal>
11.9129285812378

> <i_i_glide_confnum>
35

> <i_i_glide_posenum>
186

> <r_i_glide_eff_state_penalty>
0.3473

> <r_lp_tautomer_probability>
1

> <s_m_subgroup_title>
glide-dock_SP_top1262_2_pv

> <s_m_subgroupid>
glide-dock_SP_top1262_2_pv

> <b_m_subgroup_collapsed>
0

$$$$
CC(C)N1C(C2=CN3C(C(C(OCC3)=C4)=CC=C4C5=CN(C(C)(C(N)=O)C)N=C5)=N2)=NC(C)=N1
                    3D
 Schrodinger Suite 2021-3.
  0  0  0     0  0            999 V3000
M  V30 BEGIN CTAB
M  V30 COUNTS 62 66 0 0 0
M  V30 BEGIN ATOM
M  V30 1 C  17.3493 37.5484 86.9227 0
M  V30 2 C  18.8674 37.2737 86.7906 0
M  V30 3 C  19.3722 36.2624 87.8345 0
M  V30 4 N  19.6713 38.5086 86.8685 0
M  V30 5 C  20.9134 38.7963 86.3457 0
M  V30 6 N  21.2642 40.0069 86.7177 0
M  V30 7 C  20.2566 40.3976 87.4780 0
M  V30 8 N  19.2839 39.5322 87.6394 0
M  V30 9 C  20.2013 41.7746 88.0980 0
M  V30 10 C  21.7467 37.9319 85.5019 0
M  V30 11 C  21.3555 37.0202 84.5458 0
M  V30 12 N  23.0658 37.9860 85.5381 0
M  V30 13 C  23.5392 37.1589 84.6234 0
M  V30 14 N  22.4947 36.4927 83.9985 0
M  V30 15 C  25.0154 37.0554 84.2904 0
M  V30 16 C  25.5370 36.5262 83.0861 0
M  V30 17 O  24.7641 35.9728 82.0984 0
M  V30 18 C  23.8549 34.9805 82.5081 0
M  V30 19 C  22.4954 35.5142 82.9255 0
M  V30 20 C  26.9108 36.5425 82.8462 0
M  V30 21 C  27.8060 37.0907 83.7639 0
M  V30 22 C  27.2965 37.6345 84.9433 0
M  V30 23 C  25.9288 37.6059 85.2033 0
M  V30 24 C  29.2788 37.0511 83.5171 0
M  V30 25 C  30.3000 37.5539 84.3126 0
M  V30 26 N  31.4944 37.2364 83.7068 0
M  V30 27 N  31.2804 36.5791 82.5489 0
M  V30 28 C  29.9772 36.4679 82.4468 0
M  V30 29 C  32.8846 37.4448 84.2094 0
M  V30 30 C  33.7418 38.0629 83.0657 0
M  V30 31 C  32.8685 38.4837 85.3763 0
M  V30 32 C  33.5328 36.0866 84.6347 0
M  V30 33 O  33.5600 35.1350 83.8575 0
M  V30 34 N  34.0863 35.9565 85.8420 0
M  V30 35 H  16.7695 36.6335 86.7938 0
M  V30 36 H  17.0059 38.2631 86.1721 0
M  V30 37 H  17.0931 37.9559 87.9028 0
M  V30 38 H  19.0160 36.8479 85.8041 0
M  V30 39 H  18.8214 35.3244 87.7830 0
M  V30 40 H  19.2524 36.6511 88.8421 0
M  V30 41 H  20.4299 36.0317 87.6886 0
M  V30 42 H  19.1972 42.0818 88.3985 0
M  V30 43 H  20.5039 42.5167 87.3589 0
M  V30 44 H  20.9122 41.8998 88.9134 0
M  V30 45 H  20.3879 36.7257 84.1734 0
M  V30 46 H  23.6831 34.3567 81.6393 0
M  V30 47 H  24.3034 34.3254 83.2437 0
M  V30 48 H  21.8776 34.6763 83.2453 0
M  V30 49 H  22.0046 35.9571 82.0621 0
M  V30 50 H  27.2748 36.1114 81.9262 0
M  V30 51 H  27.9577 38.0717 85.6759 0
M  V30 52 H  25.5814 38.0401 86.1289 0
M  V30 53 H  30.2734 38.0667 85.2617 0
M  V30 54 H  29.5427 35.9566 81.5999 0
M  V30 55 H  34.7520 38.3058 83.3987 0
M  V30 56 H  33.2980 38.9880 82.6901 0
M  V30 57 H  33.8440 37.3928 82.2096 0
M  V30 58 H  33.8777 38.7501 85.6959 0
M  V30 59 H  32.3405 38.1095 86.2551 0
M  V30 60 H  32.3798 39.4133 85.0744 0
M  V30 61 H  34.0826 36.7080 86.5108 0
M  V30 62 H  34.4830 35.0509 86.0893 0
M  V30 END ATOM
M  V30 BEGIN BOND
M  V30 1 1 1 2
M  V30 2 1 1 35
M  V30 3 1 1 36
M  V30 4 1 1 37
M  V30 5 1 2 3
M  V30 6 1 2 4
M  V30 7 1 2 38
M  V30 8 1 3 39
M  V30 9 1 3 40
M  V30 10 1 3 41
M  V30 11 1 4 5
M  V30 12 1 4 8
M  V30 13 2 5 6
M  V30 14 1 5 10
M  V30 15 1 6 7
M  V30 16 2 7 8
M  V30 17 1 7 9
M  V30 18 1 9 42
M  V30 19 1 9 43
M  V30 20 1 9 44
M  V30 21 2 10 11
M  V30 22 1 10 12
M  V30 23 1 11 14
M  V30 24 1 11 45
M  V30 25 2 12 13
M  V30 26 1 13 14
M  V30 27 1 13 15
M  V30 28 1 14 19
M  V30 29 2 15 16
M  V30 30 1 15 23
M  V30 31 1 16 17
M  V30 32 1 16 20
M  V30 33 1 17 18
M  V30 34 1 18 19
M  V30 35 1 18 46
M  V30 36 1 18 47
M  V30 37 1 19 48
M  V30 38 1 19 49
M  V30 39 2 20 21
M  V30 40 1 20 50
M  V30 41 1 21 22
M  V30 42 1 21 24
M  V30 43 2 22 23
M  V30 44 1 22 51
M  V30 45 1 23 52
M  V30 46 2 24 25
M  V30 47 1 24 28
M  V30 48 1 25 26
M  V30 49 1 25 53
M  V30 50 1 26 27
M  V30 51 1 26 29
M  V30 52 2 27 28
M  V30 53 1 28 54
M  V30 54 1 29 30
M  V30 55 1 29 31
M  V30 56 1 29 32
M  V30 57 1 30 55
M  V30 58 1 30 56
M  V30 59 1 30 57
M  V30 60 1 31 58
M  V30 61 1 31 59
M  V30 62 1 31 60
M  V30 63 2 32 33
M  V30 64 1 32 34
M  V30 65 1 34 61
M  V30 66 1 34 62
M  V30 END BOND
M  V30 END CTAB
M  END
> <s_m_entry_id>
1615

> <s_m_entry_name>
result.3882

> <s_m_Source_Path>
D:\OneDrive - zju.edu.cn\DOC\A-Finished\LCK_VS\Planet\LCK-8617

> <s_m_Source_File>
glide-dock_SP_top1262_2_pv.maegz

> <i_m_Source_File_Index>
1615

> <PLANET_affinity>
8.971

> <i_lp_mmshare_version>
54117

> <i_f3d_flags>
0

> <s_epik_input>
W0NIM11bQ0hdKFtDSDNdKW4xYyhuYyhuMSlbQ0gzXSktYyhuMilbY0hdbihjMjMpW0NIMl1bQ0gyXU9jNGMzW2NIXVtjSF1jKFtjSF00KS1jNVtjSF1uKG5bY0hdNSlDKFtDSDNdKShbQ0gzXSlDKD1PKVtOSDJd

> <s_epik_cmdline>
J2VwaWtfcHl0aG9uJywgJy1waCcsICc3LjAnLCAnLXRuJywgJzgnLCAnLW1hJywgJzUwMCcsICctaW1hZScsICc8aW5maWxlLm1hZT4nLCAnLW9tYWUnLCAnPG91dGZpbGUubWFlPic=

> <r_epik_Ionization_Penalty>
  0.0227

> <r_epik_Ionization_Penalty_Charging>
  0.0226

> <r_epik_Ionization_Penalty_Neutral>
  0.0000

> <r_epik_State_Penalty>
  0.0183

> <r_epik_Charging_Adjusted_Penalty>
0.0409327

> <i_epik_Tot_Q>
0

> <i_epik_Tot_abs_Q>
0

> <s_lp_Force_Field>
S-OPLS

> <r_lp_Energy>
29.555

> <b_lp_Chiralities_Consistent>
1

> <s_lp_Variant>
CC(C)N1C(C2=CN3C(C(C(OCC3)=C4)=CC=C4C5=CN(C(C)(C(N)=O)C)N=C5)=N2)=NC(C)=N1-1

> <s_i_glide_gridfile>
glide-grid_1

> <i_i_glide_lignum>
527

> <i_i_glide_rotatable_bonds>
5

> <r_i_docking_score>
-7.19099802588954

> <r_i_glide_ligand_efficiency>
-0.211499941937928

> <r_i_glide_ligand_efficiency_sa>
-0.685177707066219

> <r_i_glide_ligand_efficiency_ln>
-1.58869316458157

> <r_i_glide_gscore>
-7.20929802588954

> <r_i_glide_lipo>
-3.03324154191675

> <r_i_glide_hbond>
-0.16

> <r_i_glide_metal>
0

> <r_i_glide_rewards>
-1.26049504702728

> <r_i_glide_evdw>
-45.4098625183105

> <r_i_glide_ecoul>
-4.20035982131958

> <r_i_glide_erotb>
0.284726533218294

> <r_i_glide_esite>
-0.139740871050347

> <r_i_glide_emodel>
-69.4791557458182

> <r_i_glide_energy>
-49.6102223396301

> <r_i_glide_einternal>
3.81076717376709

> <i_i_glide_confnum>
6

> <i_i_glide_posenum>
15

> <r_i_glide_eff_state_penalty>
0.0183

> <r_lp_tautomer_probability>
1

> <s_m_subgroup_title>
glide-dock_SP_top1262_2_pv

> <s_m_subgroupid>
glide-dock_SP_top1262_2_pv

> <b_m_subgroup_collapsed>
0

$$$$
O=C1NC([C@H]2[C@@H](CN(C2)CC3=CC=CC=C3)C)=NC4=C1C=NN4C5CCOCC5
                    3D
 Schrodinger Suite 2021-3.
  0  0  0     0  0            999 V3000
M  V30 BEGIN CTAB
M  V30 COUNTS 57 61 0 0 0
M  V30 BEGIN ATOM
M  V30 1 C  21.5431 39.0767 85.7214 0
M  V30 2 C  20.6128 39.5752 84.6008 0
M  V30 3 O  19.2712 39.1487 84.8486 0
M  V30 4 C  19.0965 37.7292 84.8733 0
M  V30 5 C  19.9707 37.1035 85.9865 0
M  V30 6 C  21.4563 37.5429 85.8689 0
M  V30 7 N  22.2628 36.8158 84.8610 0
M  V30 8 N  21.6820 36.0098 83.9472 0
M  V30 9 C  22.6625 35.4834 83.2449 0
M  V30 10 C  23.9064 35.9578 83.6582 0
M  V30 11 C  23.6306 36.8182 84.7033 0
M  V30 12 C  25.2841 35.7321 83.2744 0
M  V30 13 O  25.7210 34.9470 82.4442 0
M  V30 14 N  26.1105 36.5467 84.0017 0
M  V30 15 C  25.7724 37.4379 85.0029 0
M  V30 16 N  24.5472 37.5447 85.3985 0
M  V30 17 C  26.8932 38.2650 85.6498 0 CFG=1
M  V30 18 C  27.7547 39.1201 84.6843 0 CFG=2
M  V30 19 C  29.1748 38.5551 84.4632 0
M  V30 20 C  27.7729 40.5461 85.2619 0
M  V30 21 N  27.4837 40.3772 86.7669 0 CHG=1 CFG=2
M  V30 22 C  26.4689 39.2158 86.7940 0
M  V30 23 C  26.9789 41.6831 87.4288 0
M  V30 24 C  26.8636 41.6483 88.9495 0
M  V30 25 C  25.7660 41.0354 89.5654 0
M  V30 26 C  25.6293 41.0731 90.9505 0
M  V30 27 C  26.5801 41.7380 91.7191 0
M  V30 28 C  27.6731 42.3563 91.1180 0
M  V30 29 C  27.8172 42.3073 89.7335 0
M  V30 30 H  21.2847 39.5462 86.6732 0
M  V30 31 H  22.5726 39.4067 85.5675 0
M  V30 32 H  20.6381 40.6651 84.5348 0
M  V30 33 H  20.9594 39.1919 83.6437 0
M  V30 34 H  18.0436 37.5116 85.0506 0
M  V30 35 H  19.3240 37.3136 83.8897 0
M  V30 36 H  19.8862 36.0172 86.0315 0
M  V30 37 H  19.5949 37.4038 86.9653 0
M  V30 38 H  21.9535 37.2637 86.7996 0
M  V30 39 H  22.4832 34.7632 82.4548 0
M  V30 40 H  27.0773 36.4399 83.7511 0
M  V30 41 H  27.5622 37.5504 86.1200 0
M  V30 42 H  27.2895 39.1822 83.6944 0
M  V30 43 H  29.7459 38.5247 85.3937 0
M  V30 44 H  29.1459 37.5394 84.0641 0
M  V30 45 H  29.7406 39.1620 83.7541 0
M  V30 46 H  26.9667 41.1635 84.8566 0
M  V30 47 H  28.7072 41.1013 85.1489 0
M  V30 48 H  26.4712 38.7642 87.7908 0
M  V30 49 H  25.4900 39.6774 86.6261 0
M  V30 50 H  26.0176 41.9198 86.9673 0
M  V30 51 H  27.6920 42.4461 87.1098 0
M  V30 52 H  25.0064 40.5422 88.9744 0
M  V30 53 H  24.7832 40.6015 91.4239 0
M  V30 54 H  26.4666 41.7800 92.7915 0
M  V30 55 H  28.4011 42.8787 91.7211 0
M  V30 56 H  28.6607 42.7991 89.2721 0
M  V30 57 H  28.3353 40.0950 87.2398 0
M  V30 END ATOM
M  V30 BEGIN BOND
M  V30 1 1 1 2
M  V30 2 1 1 6
M  V30 3 1 1 30
M  V30 4 1 1 31
M  V30 5 1 2 3
M  V30 6 1 2 32
M  V30 7 1 2 33
M  V30 8 1 3 4
M  V30 9 1 4 5
M  V30 10 1 4 34
M  V30 11 1 4 35
M  V30 12 1 5 6
M  V30 13 1 5 36
M  V30 14 1 5 37
M  V30 15 1 6 7
M  V30 16 1 6 38
M  V30 17 1 7 8
M  V30 18 1 7 11
M  V30 19 2 8 9
M  V30 20 1 9 10
M  V30 21 1 9 39
M  V30 22 2 10 11
M  V30 23 1 10 12
M  V30 24 1 11 16
M  V30 25 2 12 13
M  V30 26 1 12 14
M  V30 27 1 14 15
M  V30 28 1 14 40
M  V30 29 2 15 16
M  V30 30 1 15 17
M  V30 31 1 17 18
M  V30 32 1 17 22
M  V30 33 1 17 41
M  V30 34 1 18 19
M  V30 35 1 18 20
M  V30 36 1 18 42
M  V30 37 1 19 43
M  V30 38 1 19 44
M  V30 39 1 19 45
M  V30 40 1 20 21
M  V30 41 1 20 46
M  V30 42 1 20 47
M  V30 43 1 21 22
M  V30 44 1 21 23
M  V30 45 1 21 57
M  V30 46 1 22 48
M  V30 47 1 22 49
M  V30 48 1 23 24
M  V30 49 1 23 50
M  V30 50 1 23 51
M  V30 51 2 24 25
M  V30 52 1 24 29
M  V30 53 1 25 26
M  V30 54 1 25 52
M  V30 55 2 26 27
M  V30 56 1 26 53
M  V30 57 1 27 28
M  V30 58 1 27 54
M  V30 59 2 28 29
M  V30 60 1 28 55
M  V30 61 1 29 56
M  V30 END BOND
M  V30 END CTAB
M  END
> <s_m_entry_id>
1624

> <s_m_entry_name>
result.6649

> <s_m_Source_Path>
D:\OneDrive - zju.edu.cn\DOC\A-Finished\LCK_VS\Planet\LCK-8617

> <s_m_Source_File>
glide-dock_SP_top1262_2_pv.maegz

> <i_m_Source_File_Index>
1624

> <PLANET_affinity>
7.412

> <i_lp_mmshare_version>
54117

> <i_f3d_flags>
0

> <s_epik_input>
W0NIMl0xW0NIMl1PW0NIMl1bQ0gyXVtDSF0xbihuW2NIXTIpYyhjMjMpbmMoW25IXWMzPU8pW0NASF00W0NASF0oW0NIM10pW0NIMl1OKFtDSDJdNClbQ0gyXWM1W2NIXVtjSF1bY0hdW2NIXVtjSF01

> <s_epik_cmdline>
J2VwaWtfcHl0aG9uJywgJy1waCcsICc3LjAnLCAnLXRuJywgJzgnLCAnLW1hJywgJzUwMCcsICctaW1hZScsICc8aW5maWxlLm1hZT4nLCAnLW9tYWUnLCAnPG91dGZpbGUubWFlPic=

> <r_epik_Ionization_Penalty>
  0.1692

> <r_epik_Ionization_Penalty_Charging>
  0.1692

> <r_epik_Ionization_Penalty_Neutral>
  0.0000

> <r_epik_State_Penalty>
  0.0593

> <r_epik_Charging_Adjusted_Penalty>
0.228413

> <i_epik_Tot_Q>
1

> <i_epik_Tot_abs_Q>
1

> <s_lp_Force_Field>
S-OPLS

> <r_lp_Energy>
18.7959

> <b_lp_Chiralities_Consistent>
1

> <s_lp_Variant>
O=C1NC([C@H]2[C@@H](CN(C2)CC3=CC=CC=C3)C)=NC4=C1C=NN4C5CCOCC5-1

> <s_i_glide_gridfile>
glide-grid_1

> <i_i_glide_lignum>
2075

> <i_i_glide_rotatable_bonds>
4

> <r_i_docking_score>
-7.18374592555448

> <r_i_glide_ligand_efficiency>
-0.247715376743258

> <r_i_glide_ligand_efficiency_sa>
-0.761060119095181

> <r_i_glide_ligand_efficiency_ln>
-1.64489565287285

> <r_i_glide_gscore>
-7.24304592555448

> <r_i_glide_lipo>
-2.51366760509131

> <r_i_glide_hbond>
-0.514286007402283

> <r_i_glide_metal>
0

> <r_i_glide_rewards>
-2.06339671087398

> <r_i_glide_evdw>
-35.4280204772949

> <r_i_glide_ecoul>
-5.88449859619141

> <r_i_glide_erotb>
0.502380211106554

> <r_i_glide_esite>
0

> <r_i_glide_emodel>
-60.8427208408733

> <r_i_glide_energy>
-41.3125190734863

> <r_i_glide_einternal>
2.67617869377136

> <i_i_glide_confnum>
189

> <i_i_glide_posenum>
296

> <r_i_glide_eff_state_penalty>
0.0593

> <s_m_subgroup_title>
glide-dock_SP_top1262_2_pv

> <s_m_subgroupid>
glide-dock_SP_top1262_2_pv

> <b_m_subgroup_collapsed>
0

$$$$
O=C1C2=CC3=CN=C(NC4=CC=C(N5CCN(C)CC5)C=N4)N=C3N2C6(CCCCC6)CN1.[H]Cl.[H]Cl
                    3D
 Schrodinger Suite 2021-3.
  0  0  0     0  0            999 V3000
M  V30 BEGIN CTAB
M  V30 COUNTS 64 69 0 0 0
M  V30 BEGIN ATOM
M  V30 1 C  25.6176 38.7061 86.6829 0
M  V30 2 C  26.1835 39.9701 87.3643 0
M  V30 3 C  26.1912 41.1711 86.4008 0
M  V30 4 C  24.8118 41.4180 85.7567 0
M  V30 5 C  24.2292 40.1347 85.1239 0
M  V30 6 C  24.1854 38.9044 86.0795 0
M  V30 7 N  23.6772 37.7242 85.3203 0
M  V30 8 C  22.3203 37.3923 85.2420 0
M  V30 9 C  21.2836 38.1754 85.8852 0
M  V30 10 O  20.0783 38.1638 85.6524 0
M  V30 11 N  21.7617 39.0106 86.8294 0
M  V30 12 C  23.1684 39.0968 87.2582 0
M  V30 13 C  22.1552 36.3659 84.3213 0
M  V30 14 C  23.4324 36.0315 83.8084 0
M  V30 15 C  24.3709 36.8842 84.4443 0
M  V30 16 N  25.6797 36.8815 84.1597 0
M  V30 17 C  26.0701 35.9869 83.2121 0
M  V30 18 N  25.2619 35.1306 82.5420 0
M  V30 19 C  23.9401 35.1563 82.8432 0
M  V30 20 N  27.4172 35.9140 82.8434 0
M  V30 21 C  28.5526 36.6408 83.2347 0
M  V30 22 C  29.7615 36.3465 82.6043 0
M  V30 23 C  30.8903 37.1015 82.9253 0
M  V30 24 C  30.8124 38.1329 83.8743 0
M  V30 25 C  29.5638 38.3372 84.4788 0
M  V30 26 N  28.4574 37.6189 84.1715 0
M  V30 27 N  31.9082 38.9339 84.1894 0
M  V30 28 C  33.0784 39.1327 83.3122 0
M  V30 29 C  33.4428 40.6219 83.1068 0
M  V30 30 N  33.7062 41.2661 84.4825 0 CHG=1
M  V30 31 C  34.0989 42.7527 84.3203 0
M  V30 32 C  32.4205 41.1292 85.3244 0
M  V30 33 C  32.1010 39.6257 85.4786 0
M  V30 34 H  25.6357 37.8684 87.3800 0
M  V30 35 H  26.3345 38.4532 85.9070 0
M  V30 36 H  25.6063 40.2108 88.2597 0
M  V30 37 H  27.1983 39.7773 87.7153 0
M  V30 38 H  26.5263 42.0702 86.9209 0
M  V30 39 H  26.9229 40.9916 85.6104 0
M  V30 40 H  24.1222 41.8161 86.5023 0
M  V30 41 H  24.8949 42.1949 84.9948 0
M  V30 42 H  24.8364 39.8808 84.2541 0
M  V30 43 H  23.2319 40.3489 84.7327 0
M  V30 44 H  21.1090 39.7047 87.1567 0
M  V30 45 H  23.3052 40.0571 87.7508 0
M  V30 46 H  23.3179 38.3561 88.0411 0
M  V30 47 H  21.2056 35.9565 84.0164 0
M  V30 48 H  23.2892 34.4851 82.3039 0
M  V30 49 H  27.5940 35.2351 82.1171 0
M  V30 50 H  29.8289 35.5628 81.8622 0
M  V30 51 H  31.8198 36.8642 82.4283 0
M  V30 52 H  29.4018 39.1180 85.2042 0
M  V30 53 H  32.8913 38.7107 82.3245 0
M  V30 54 H  33.9231 38.5668 83.7078 0
M  V30 55 H  34.3557 40.7376 82.5205 0
M  V30 56 H  32.6367 41.1826 82.6255 0
M  V30 57 H  33.2831 43.2680 83.8116 0
M  V30 58 H  34.2600 43.1616 85.3196 0
M  V30 59 H  35.0196 42.7887 83.7353 0
M  V30 60 H  32.6171 41.5988 86.2915 0
M  V30 61 H  31.6224 41.6820 84.8185 0
M  V30 62 H  32.8947 39.1158 86.0253 0
M  V30 63 H  31.2347 39.5112 86.1291 0
M  V30 64 H  34.4485 40.7582 84.9439 0
M  V30 END ATOM
M  V30 BEGIN BOND
M  V30 1 1 1 2
M  V30 2 1 1 6
M  V30 3 1 1 34
M  V30 4 1 1 35
M  V30 5 1 2 3
M  V30 6 1 2 36
M  V30 7 1 2 37
M  V30 8 1 3 4
M  V30 9 1 3 38
M  V30 10 1 3 39
M  V30 11 1 4 5
M  V30 12 1 4 40
M  V30 13 1 4 41
M  V30 14 1 5 6
M  V30 15 1 5 42
M  V30 16 1 5 43
M  V30 17 1 6 7
M  V30 18 1 6 12
M  V30 19 1 7 8
M  V30 20 1 7 15
M  V30 21 1 8 9
M  V30 22 2 8 13
M  V30 23 2 9 10
M  V30 24 1 9 11
M  V30 25 1 11 12
M  V30 26 1 11 44
M  V30 27 1 12 45
M  V30 28 1 12 46
M  V30 29 1 13 14
M  V30 30 1 13 47
M  V30 31 2 14 15
M  V30 32 1 14 19
M  V30 33 1 15 16
M  V30 34 2 16 17
M  V30 35 1 17 18
M  V30 36 1 17 20
M  V30 37 2 18 19
M  V30 38 1 19 48
M  V30 39 1 20 21
M  V30 40 1 20 49
M  V30 41 2 21 22
M  V30 42 1 21 26
M  V30 43 1 22 23
M  V30 44 1 22 50
M  V30 45 2 23 24
M  V30 46 1 23 51
M  V30 47 1 24 25
M  V30 48 1 24 27
M  V30 49 2 25 26
M  V30 50 1 25 52
M  V30 51 1 27 28
M  V30 52 1 27 33
M  V30 53 1 28 29
M  V30 54 1 28 53
M  V30 55 1 28 54
M  V30 56 1 29 30
M  V30 57 1 29 55
M  V30 58 1 29 56
M  V30 59 1 30 31
M  V30 60 1 30 32
M  V30 61 1 30 64
M  V30 62 1 31 57
M  V30 63 1 31 58
M  V30 64 1 31 59
M  V30 65 1 32 33
M  V30 66 1 32 60
M  V30 67 1 32 61
M  V30 68 1 33 62
M  V30 69 1 33 63
M  V30 END BOND
M  V30 END CTAB
M  END
> <s_m_entry_id>
1630

> <s_m_entry_name>
result.6662

> <s_m_Source_Path>
D:\OneDrive - zju.edu.cn\DOC\A-Finished\LCK_VS\Planet\LCK-8617

> <s_m_Source_File>
glide-dock_SP_top1262_2_pv.maegz

> <i_m_Source_File_Index>
1630

> <PLANET_affinity>
7.463

> <i_lp_mmshare_version>
54117

> <i_f3d_flags>
0

> <s_epik_input>
W0NIMl0xW0NIMl1bQ0gyXVtDSDJdW0NIMl1DMTJuM2MoQyg9TylbTkhdW0NIMl0yKVtjSF1jNGMzbmMobltjSF00KVtOSF1jNVtjSF1bY0hdYyhbY0hdbjUpTjZbQ0gyXVtDSDJdTihbQ0gzXSlbQ0gyXVtDSDJdNg==

> <s_epik_cmdline>
J2VwaWtfcHl0aG9uJywgJy1waCcsICc3LjAnLCAnLXRuJywgJzgnLCAnLW1hJywgJzUwMCcsICctaW1hZScsICc8aW5maWxlLm1hZT4nLCAnLW9tYWUnLCAnPG91dGZpbGUubWFlPic=

> <r_epik_Ionization_Penalty>
  0.1224

> <r_epik_Ionization_Penalty_Charging>
  0.0736

> <r_epik_Ionization_Penalty_Neutral>
  0.0488

> <r_epik_State_Penalty>
  0.1348

> <r_epik_Charging_Adjusted_Penalty>
0.208432

> <i_epik_Tot_Q>
1

> <i_epik_Tot_abs_Q>
1

> <s_lp_Force_Field>
S-OPLS

> <r_lp_Energy>
70.7433

> <b_lp_Chiralities_Consistent>
1

> <s_lp_Variant>
O=C1C2=CC3=CN=C(NC4=CC=C(N5CCN(C)CC5)C=N4)N=C3N2C6(CCCCC6)CN1.[H]Cl.[H]Cl-1

> <s_i_glide_gridfile>
glide-grid_1

> <i_i_glide_lignum>
1976

> <i_i_glide_rotatable_bonds>
3

> <r_i_docking_score>
-7.18027427964267

> <r_i_glide_ligand_efficiency>
-0.217584069080081

> <r_i_glide_ligand_efficiency_sa>
-0.697908370421129

> <r_i_glide_ligand_efficiency_ln>
-1.596855822322

> <r_i_glide_gscore>
-7.31507427964267

> <r_i_glide_lipo>
-1.91910476211202

> <r_i_glide_hbond>
-0.339064350897016

> <r_i_glide_metal>
0

> <r_i_glide_rewards>
-2.39977323998763

> <r_i_glide_evdw>
-38.7723045349121

> <r_i_glide_ecoul>
-6.10382604598999

> <r_i_glide_erotb>
0.209946944753807

> <r_i_glide_esite>
-0.012889737755696

> <r_i_glide_emodel>
-69.0755596973152

> <r_i_glide_energy>
-44.8761305809021

> <r_i_glide_einternal>
1.18683755397797

> <i_i_glide_confnum>
10

> <i_i_glide_posenum>
146

> <r_i_glide_eff_state_penalty>
0.1348

> <r_lp_tautomer_probability>
1

> <s_m_subgroup_title>
glide-dock_SP_top1262_2_pv

> <s_m_subgroupid>
glide-dock_SP_top1262_2_pv

> <b_m_subgroup_collapsed>
0

$$$$
O=C1C=C(N2CCOCC2)OC3=C(C(NC4=CC=CC=C4)C)C=C(C)C=C13
                    3D
 Schrodinger Suite 2021-3.
  0  0  0     0  0            999 V3000
M  V30 BEGIN CTAB
M  V30 COUNTS 52 55 0 0 0
M  V30 BEGIN ATOM
M  V30 1 C  23.9822 36.2434 84.1434 0
M  V30 2 C  23.8986 35.4567 82.8113 0
M  V30 3 O  25.1068 34.7567 82.5394 0
M  V30 4 C  26.2356 35.6144 82.4434 0
M  V30 5 C  26.4421 36.2982 83.8036 0
M  V30 6 N  25.2217 37.1083 84.1321 0 CHG=1
M  V30 7 C  25.2326 38.4203 84.4436 0
M  V30 8 O  24.0828 38.9102 84.8154 0
M  V30 9 C  26.3464 39.2637 84.3796 0
M  V30 10 C  26.2029 40.5750 84.6657 0
M  V30 11 O  27.2506 41.4367 84.5722 0
M  V30 12 C  24.9093 41.1568 85.0911 0
M  V30 13 C  23.8543 40.2353 85.1799 0
M  V30 14 C  24.6804 42.5037 85.3991 0
M  V30 15 C  23.4140 42.9174 85.8136 0
M  V30 16 C  23.1604 44.3796 86.1291 0
M  V30 17 C  22.3761 41.9888 85.9210 0
M  V30 18 C  22.5753 40.6359 85.6173 0
M  V30 19 C  21.3628 39.6966 85.7392 0 CFG=1
M  V30 20 C  20.4994 39.7334 84.4726 0
M  V30 21 N  21.7362 38.3257 86.0888 0
M  V30 22 C  20.8666 37.4355 86.7383 0
M  V30 23 C  19.5492 37.7522 87.0943 0
M  V30 24 C  18.7580 36.8122 87.7480 0
M  V30 25 C  19.2830 35.5569 88.0397 0
M  V30 26 C  20.5730 35.2128 87.6435 0
M  V30 27 C  21.3694 36.1623 87.0114 0
M  V30 28 H  24.0772 35.5770 84.9998 0
M  V30 29 H  23.0930 36.8612 84.2778 0
M  V30 30 H  23.6832 36.1138 81.9730 0
M  V30 31 H  23.0776 34.7409 82.8541 0
M  V30 32 H  26.1146 36.3465 81.6433 0
M  V30 33 H  27.1069 35.0094 82.1918 0
M  V30 34 H  27.3492 36.8956 83.8360 0
M  V30 35 H  26.4830 35.5554 84.5935 0
M  V30 36 H  27.3122 38.9019 84.0695 0
M  V30 37 H  25.4652 43.2417 85.3222 0
M  V30 38 H  23.6746 45.0241 85.4114 0
M  V30 39 H  22.0980 44.6260 86.0636 0
M  V30 40 H  23.5167 44.6289 87.1296 0
M  V30 41 H  21.3996 42.3325 86.2356 0
M  V30 42 H  20.7621 40.0932 86.5604 0
M  V30 43 H  20.2369 40.7559 84.1984 0
M  V30 44 H  21.0435 39.2859 83.6435 0
M  V30 45 H  19.5720 39.1757 84.5953 0
M  V30 46 H  22.6861 38.2333 86.4175 0
M  V30 47 H  19.1215 38.7199 86.8841 0
M  V30 48 H  17.7457 37.0585 88.0370 0
M  V30 49 H  18.6773 34.8232 88.5503 0
M  V30 50 H  20.9602 34.2242 87.8504 0
M  V30 51 H  22.3757 35.8950 86.7288 0
M  V30 52 H  26.9840 42.3148 84.8500 0
M  V30 END ATOM
M  V30 BEGIN BOND
M  V30 1 1 1 2
M  V30 2 1 1 6
M  V30 3 1 1 28
M  V30 4 1 1 29
M  V30 5 1 2 3
M  V30 6 1 2 30
M  V30 7 1 2 31
M  V30 8 1 3 4
M  V30 9 1 4 5
M  V30 10 1 4 32
M  V30 11 1 4 33
M  V30 12 1 5 6
M  V30 13 1 5 34
M  V30 14 1 5 35
M  V30 15 2 6 7
M  V30 16 1 7 8
M  V30 17 1 7 9
M  V30 18 1 8 13
M  V30 19 2 9 10
M  V30 20 1 9 36
M  V30 21 1 10 11
M  V30 22 1 10 12
M  V30 23 1 11 52
M  V30 24 2 12 13
M  V30 25 1 12 14
M  V30 26 1 13 18
M  V30 27 2 14 15
M  V30 28 1 14 37
M  V30 29 1 15 16
M  V30 30 1 15 17
M  V30 31 1 16 38
M  V30 32 1 16 39
M  V30 33 1 16 40
M  V30 34 2 17 18
M  V30 35 1 17 41
M  V30 36 1 18 19
M  V30 37 1 19 20
M  V30 38 1 19 21
M  V30 39 1 19 42
M  V30 40 1 20 43
M  V30 41 1 20 44
M  V30 42 1 20 45
M  V30 43 1 21 22
M  V30 44 1 21 46
M  V30 45 2 22 23
M  V30 46 1 22 27
M  V30 47 1 23 24
M  V30 48 1 23 47
M  V30 49 2 24 25
M  V30 50 1 24 48
M  V30 51 1 25 26
M  V30 52 1 25 49
M  V30 53 2 26 27
M  V30 54 1 26 50
M  V30 55 1 27 51
M  V30 END BOND
M  V30 END CTAB
M  END
> <s_m_entry_id>
1631

> <s_m_entry_name>
result.6905

> <s_m_Source_Path>
D:\OneDrive - zju.edu.cn\DOC\A-Finished\LCK_VS\Planet\LCK-8617

> <s_m_Source_File>
glide-dock_SP_top1262_2_pv.maegz

> <i_m_Source_File_Index>
1631

> <PLANET_affinity>
7.022

> <i_lp_mmshare_version>
54117

> <i_f3d_flags>
0

> <s_epik_input>
W0NIMl0xW0NIMl1PW0NIMl1bQ0gyXU4xYyhbY0hdYzI9TylvYyhjMjMpYyhbY0hdYyhbY0hdMylbQ0gzXSlbQ0BASF0oW0NIM10pW05IXWM0W2NIXVtjSF1bY0hdW2NIXVtjSF00

> <s_epik_cmdline>
J2VwaWtfcHl0aG9uJywgJy1waCcsICc3LjAnLCAnLXRuJywgJzgnLCAnLW1hJywgJzUwMCcsICctaW1hZScsICc8aW5maWxlLm1hZT4nLCAnLW9tYWUnLCAnPG91dGZpbGUubWFlPic=

> <r_epik_Ionization_Penalty>
  0.5609

> <r_epik_Ionization_Penalty_Charging>
  0.0000

> <r_epik_Ionization_Penalty_Neutral>
  0.5609

> <r_epik_State_Penalty>
  0.5713

> <r_epik_Charging_Adjusted_Penalty>
0.571293

> <i_epik_Tot_Q>
1

> <i_epik_Tot_abs_Q>
1

> <s_epik_Chemistry_Notes>
This compound has an imine and may undergo hydrolysis.

> <s_lp_Force_Field>
S-OPLS

> <r_lp_Energy>
47.9267

> <b_lp_Chiralities_Consistent>
1

> <s_lp_Variant>
O=C1C=C(N2CCOCC2)OC3=C(C(NC4=CC=CC=C4)C)C=C(C)C=C13-2

> <s_i_glide_gridfile>
glide-grid_1

> <i_i_glide_lignum>
2686

> <i_i_glide_rotatable_bonds>
4

> <r_i_docking_score>
-7.18003560351829

> <r_i_glide_ligand_efficiency>
-0.265927244574752

> <r_i_glide_ligand_efficiency_sa>
-0.797781732847802

> <r_i_glide_ligand_efficiency_ln>
-1.67139391636085

> <r_i_glide_gscore>
-7.75133560351829

> <r_i_glide_lipo>
-3.16677578556634

> <r_i_glide_hbond>
-0.32

> <r_i_glide_metal>
0

> <r_i_glide_rewards>
-1.76233833954384

> <r_i_glide_evdw>
-34.2780609130859

> <r_i_glide_ecoul>
-8.13619995117188

> <r_i_glide_erotb>
0.432111559921968

> <r_i_glide_esite>
0

> <r_i_glide_emodel>
-61.6675320206574

> <r_i_glide_energy>
-42.4142608642578

> <r_i_glide_einternal>
5.04082918167114

> <i_i_glide_confnum>
27

> <i_i_glide_posenum>
115

> <r_i_glide_eff_state_penalty>
0.5713

> <s_m_subgroup_title>
glide-dock_SP_top1262_2_pv

> <s_m_subgroupid>
glide-dock_SP_top1262_2_pv

> <b_m_subgroup_collapsed>
0

$$$$
O=S(C1=CC=CC=C1OC)(NC2=C3N=C(N4C=C(C)N=C4)C=C5C3=C(N(C)C5=O)C=C2)=O
                    3D
 Schrodinger Suite 2021-3.
  0  0  0     0  0            999 V3000
M  V30 BEGIN CTAB
M  V30 COUNTS 51 55 0 0 0
M  V30 BEGIN ATOM
M  V30 1 C  24.8904 44.3506 85.4528 0
M  V30 2 O  24.6902 43.0329 85.9469 0
M  V30 3 C  23.5880 42.3093 85.5327 0
M  V30 4 C  22.7813 42.6693 84.4413 0
M  V30 5 C  21.6844 41.8908 84.0734 0
M  V30 6 C  21.3573 40.7567 84.8110 0
M  V30 7 C  22.1432 40.3947 85.8999 0
M  V30 8 C  23.2656 41.1508 86.2502 0
M  V30 9 S  24.3713 40.5524 87.5270 0
M  V30 10 O  23.8618 39.2800 88.0432 0
M  V30 11 O  24.6144 41.6664 88.4492 0
M  V30 12 N  25.9246 40.2496 86.7129 0
M  V30 13 C  26.2592 39.2066 85.8221 0
M  V30 14 C  27.5997 39.2126 85.3728 0
M  V30 15 C  28.1103 38.2574 84.4767 0
M  V30 16 C  27.2683 37.2563 83.9996 0
M  V30 17 N  27.4304 36.1581 83.1448 0
M  V30 18 C  28.6724 35.7193 82.5110 0
M  V30 19 C  26.2718 35.4416 83.0446 0
M  V30 20 O  26.0676 34.3925 82.4434 0
M  V30 21 C  25.2957 36.2062 83.8657 0
M  V30 22 C  25.9697 37.2536 84.4271 0
M  V30 23 C  25.3896 38.1718 85.3207 0
M  V30 24 C  23.9455 36.0382 84.1547 0
M  V30 25 C  23.3732 36.9647 85.0406 0
M  V30 26 N  24.0673 37.9961 85.6181 0
M  V30 27 N  22.0132 36.8759 85.3663 0
M  V30 28 C  21.4246 36.9364 86.6049 0
M  V30 29 C  20.0551 36.8503 86.3995 0
M  V30 30 C  18.9372 36.8601 87.4154 0
M  V30 31 N  19.7878 36.7572 85.1058 0
M  V30 32 C  20.9519 36.7569 84.5049 0
M  V30 33 H  25.6258 44.8568 86.0777 0
M  V30 34 H  25.2896 44.3228 84.4435 0
M  V30 35 H  23.9781 44.9498 85.4683 0
M  V30 36 H  22.9889 43.5566 83.8654 0
M  V30 37 H  21.0669 42.1918 83.2416 0
M  V30 38 H  20.4952 40.1626 84.5455 0
M  V30 39 H  21.8844 39.5129 86.4630 0
M  V30 40 H  26.5881 41.0025 86.8050 0
M  V30 41 H  28.2775 39.9763 85.7288 0
M  V30 42 H  29.1470 38.3042 84.1764 0
M  V30 43 H  28.6127 34.6902 82.1506 0
M  V30 44 H  28.9082 36.3560 81.6571 0
M  V30 45 H  29.5005 35.7761 83.2190 0
M  V30 46 H  23.3671 35.2279 83.7314 0
M  V30 47 H  22.0222 37.0394 87.4994 0
M  V30 48 H  19.3158 36.9090 88.4355 0
M  V30 49 H  18.3229 35.9620 87.3519 0
M  V30 50 H  18.2737 37.7147 87.2779 0
M  V30 51 H  21.1264 36.7116 83.4400 0
M  V30 END ATOM
M  V30 BEGIN BOND
M  V30 1 1 1 2
M  V30 2 1 1 33
M  V30 3 1 1 34
M  V30 4 1 1 35
M  V30 5 1 2 3
M  V30 6 2 3 4
M  V30 7 1 3 8
M  V30 8 1 4 5
M  V30 9 1 4 36
M  V30 10 2 5 6
M  V30 11 1 5 37
M  V30 12 1 6 7
M  V30 13 1 6 38
M  V30 14 2 7 8
M  V30 15 1 7 39
M  V30 16 1 8 9
M  V30 17 2 9 10
M  V30 18 2 9 11
M  V30 19 1 9 12
M  V30 20 1 12 13
M  V30 21 1 12 40
M  V30 22 2 13 14
M  V30 23 1 13 23
M  V30 24 1 14 15
M  V30 25 1 14 41
M  V30 26 2 15 16
M  V30 27 1 15 42
M  V30 28 1 16 17
M  V30 29 1 16 22
M  V30 30 1 17 18
M  V30 31 1 17 19
M  V30 32 1 18 43
M  V30 33 1 18 44
M  V30 34 1 18 45
M  V30 35 2 19 20
M  V30 36 1 19 21
M  V30 37 1 21 22
M  V30 38 2 21 24
M  V30 39 2 22 23
M  V30 40 1 23 26
M  V30 41 1 24 25
M  V30 42 1 24 46
M  V30 43 2 25 26
M  V30 44 1 25 27
M  V30 45 1 27 28
M  V30 46 1 27 32
M  V30 47 2 28 29
M  V30 48 1 28 47
M  V30 49 1 29 30
M  V30 50 1 29 31
M  V30 51 1 30 48
M  V30 52 1 30 49
M  V30 53 1 30 50
M  V30 54 2 31 32
M  V30 55 1 32 51
M  V30 END BOND
M  V30 END CTAB
M  END
> <s_m_entry_id>
1632

> <s_m_entry_name>
result.7979

> <s_m_Source_Path>
D:\OneDrive - zju.edu.cn\DOC\A-Finished\LCK_VS\Planet\LCK-8617

> <s_m_Source_File>
glide-dock_SP_top1262_2_pv.maegz

> <i_m_Source_File_Index>
1632

> <PLANET_affinity>
7.322

> <i_lp_mmshare_version>
54117

> <i_f3d_flags>
0

> <s_epik_input>
W0NIM11PYzFbY0hdW2NIXVtjSF1bY0hdYzFTKD1PKSg9TylbTkhdYyhbY0hdW2NIXTIpYzNuYyhbY0hdYyhjM2MyNClDKD1PKU40W0NIM10pLW41W2NIXWMoW0NIM10pbltjSF01

> <s_epik_cmdline>
J2VwaWtfcHl0aG9uJywgJy1waCcsICc3LjAnLCAnLXRuJywgJzgnLCAnLW1hJywgJzUwMCcsICctaW1hZScsICc8aW5maWxlLm1hZT4nLCAnLW9tYWUnLCAnPG91dGZpbGUubWFlPic=

> <r_epik_Ionization_Penalty>
  0.2864

> <r_epik_Ionization_Penalty_Charging>
  0.0075

> <r_epik_Ionization_Penalty_Neutral>
  0.2789

> <r_epik_State_Penalty>
  0.2864

> <r_epik_Charging_Adjusted_Penalty>
0.293925

> <i_epik_Tot_Q>
0

> <i_epik_Tot_abs_Q>
0

> <s_lp_Force_Field>
S-OPLS

> <r_lp_Energy>
43.0305

> <b_lp_Chiralities_Consistent>
1

> <s_lp_Variant>
O=S(C1=CC=CC=C1OC)(NC2=C3N=C(N4C=C(C)N=C4)C=C5C3=C(N(C)C5=O)C=C2)=O-1

> <s_i_glide_gridfile>
glide-grid_1

> <i_i_glide_lignum>
2208

> <i_i_glide_rotatable_bonds>
5

> <r_i_docking_score>
-7.17960150014622

> <r_i_glide_ligand_efficiency>
-0.224362546879569

> <r_i_glide_ligand_efficiency_sa>
-0.712306685054896

> <r_i_glide_ligand_efficiency_ln>
-1.60770848442808

> <r_i_glide_gscore>
-7.46600150014622

> <r_i_glide_lipo>
-2.6641183023462

> <r_i_glide_hbond>
-0.473189104374115

> <r_i_glide_metal>
0

> <r_i_glide_rewards>
-1.61013426299251

> <r_i_glide_evdw>
-41.6246147155762

> <r_i_glide_ecoul>
-6.89411020278931

> <r_i_glide_erotb>
0.396787435763817

> <r_i_glide_esite>
0

> <r_i_glide_emodel>
-65.8313006860908

> <r_i_glide_energy>
-48.5187249183655

> <r_i_glide_einternal>
6.93580293655396

> <i_i_glide_confnum>
61

> <i_i_glide_posenum>
306

> <r_i_glide_eff_state_penalty>
0.2864

> <r_lp_tautomer_probability>
1

> <s_m_subgroup_title>
glide-dock_SP_top1262_2_pv

> <s_m_subgroupid>
glide-dock_SP_top1262_2_pv

> <b_m_subgroup_collapsed>
0

$$$$
CC1=C2C(C[C@H](C3=C(C4=NC(OC)=CC=C4)C=C(F)C=C3)NC2=O)=NC(N)=N1
                    3D
 Schrodinger Suite 2021-3.
  0  0  0     0  0            999 V3000
M  V30 BEGIN CTAB
M  V30 COUNTS 46 49 0 0 0
M  V30 BEGIN ATOM
M  V30 1 C  23.3788 34.8582 82.2595 0
M  V30 2 C  24.5152 35.5596 82.9690 0
M  V30 3 N  25.7452 35.3295 82.4437 0
M  V30 4 C  26.7742 35.9972 83.0157 0
M  V30 5 N  28.0245 35.8277 82.4436 0
M  V30 6 N  26.6893 36.8274 84.0840 0
M  V30 7 C  25.4540 37.0165 84.6244 0
M  V30 8 C  24.3137 36.4455 84.0424 0
M  V30 9 C  25.2748 37.9326 85.8266 0
M  V30 10 C  23.9649 38.7695 85.6858 0 CFG=1
M  V30 11 N  22.8658 37.8601 85.3171 0
M  V30 12 C  22.9274 36.7611 84.5540 0
M  V30 13 O  21.8966 36.1152 84.3777 0
M  V30 14 C  23.7099 39.7163 86.8834 0
M  V30 15 C  22.5183 39.7481 87.6630 0
M  V30 16 C  22.4298 40.6598 88.7237 0
M  V30 17 C  23.4667 41.5374 89.0180 0
M  V30 18 F  23.3500 42.3981 90.0554 0
M  V30 19 C  24.6163 41.5296 88.2409 0
M  V30 20 C  24.7311 40.6339 87.1810 0
M  V30 21 C  21.3359 38.8698 87.4359 0
M  V30 22 N  20.2810 39.4454 86.8017 0
M  V30 23 C  19.1855 38.6891 86.5325 0
M  V30 24 O  18.1987 39.3802 85.8689 0
M  V30 25 C  16.9417 38.7558 85.6424 0
M  V30 26 C  19.1063 37.3368 86.8930 0
M  V30 27 C  20.1978 36.7471 87.5286 0
M  V30 28 C  21.3258 37.5198 87.8019 0
M  V30 29 H  22.5971 35.5568 81.9689 0
M  V30 30 H  22.9446 34.1312 82.9430 0
M  V30 31 H  23.6828 34.3566 81.3498 0
M  V30 32 H  28.8143 36.3202 82.8300 0
M  V30 33 H  28.0813 35.3406 81.5521 0
M  V30 34 H  25.2273 37.3190 86.7265 0
M  V30 35 H  26.1523 38.5697 85.9311 0
M  V30 36 H  24.0816 39.4438 84.8346 0
M  V30 37 H  21.9465 38.0812 85.6722 0
M  V30 38 H  21.5409 40.6949 89.3312 0
M  V30 39 H  25.4158 42.2224 88.4577 0
M  V30 40 H  25.6326 40.6652 86.5866 0
M  V30 41 H  16.2438 39.4920 85.2438 0
M  V30 42 H  16.5063 38.3562 86.5588 0
M  V30 43 H  17.0298 37.9564 84.9089 0
M  V30 44 H  18.2288 36.7481 86.6826 0
M  V30 45 H  20.1669 35.7032 87.8033 0
M  V30 46 H  22.1830 37.0763 88.2854 0
M  V30 END ATOM
M  V30 BEGIN BOND
M  V30 1 1 1 2
M  V30 2 1 1 29
M  V30 3 1 1 30
M  V30 4 1 1 31
M  V30 5 2 2 3
M  V30 6 1 2 8
M  V30 7 1 3 4
M  V30 8 1 4 5
M  V30 9 2 4 6
M  V30 10 1 5 32
M  V30 11 1 5 33
M  V30 12 1 6 7
M  V30 13 2 7 8
M  V30 14 1 7 9
M  V30 15 1 8 12
M  V30 16 1 9 10
M  V30 17 1 9 34
M  V30 18 1 9 35
M  V30 19 1 10 11
M  V30 20 1 10 14
M  V30 21 1 10 36
M  V30 22 1 11 12
M  V30 23 1 11 37
M  V30 24 2 12 13
M  V30 25 1 14 15
M  V30 26 2 14 20
M  V30 27 2 15 16
M  V30 28 1 15 21
M  V30 29 1 16 17
M  V30 30 1 16 38
M  V30 31 1 17 18
M  V30 32 2 17 19
M  V30 33 1 19 20
M  V30 34 1 19 39
M  V30 35 1 20 40
M  V30 36 2 21 22
M  V30 37 1 21 28
M  V30 38 1 22 23
M  V30 39 1 23 24
M  V30 40 2 23 26
M  V30 41 1 24 25
M  V30 42 1 25 41
M  V30 43 1 25 42
M  V30 44 1 25 43
M  V30 45 1 26 27
M  V30 46 1 26 44
M  V30 47 2 27 28
M  V30 48 1 27 45
M  V30 49 1 28 46
M  V30 END BOND
M  V30 END CTAB
M  END
> <s_m_entry_id>
1634

> <s_m_entry_name>
result.2282

> <s_m_Source_Path>
D:\OneDrive - zju.edu.cn\DOC\A-Finished\LCK_VS\Planet\LCK-8617

> <s_m_Source_File>
glide-dock_SP_top1262_2_pv.maegz

> <i_m_Source_File_Index>
1634

> <PLANET_affinity>
7.234

> <i_lp_mmshare_version>
54117

> <i_f3d_flags>
0

> <s_epik_input>
W05IMl1jKG4xKW5jKFtDSDNdKWMoYzEyKUMoPU8pW05IXVtDQEhdKFtDSDJdMiljM2MoW2NIXWMoRilbY0hdW2NIXTMpLWM0bmMoT1tDSDNdKVtjSF1bY0hdW2NIXTQ=

> <s_epik_cmdline>
J2VwaWtfcHl0aG9uJywgJy1waCcsICc3LjAnLCAnLXRuJywgJzgnLCAnLW1hJywgJzUwMCcsICctaW1hZScsICc8aW5maWxlLm1hZT4nLCAnLW9tYWUnLCAnPG91dGZpbGUubWFlPic=

> <r_epik_Ionization_Penalty>
  0.0002

> <r_epik_Ionization_Penalty_Charging>
  0.0000

> <r_epik_Ionization_Penalty_Neutral>
  0.0002

> <r_epik_State_Penalty>
  0.0000

> <r_epik_Charging_Adjusted_Penalty>
0

> <i_epik_Tot_Q>
0

> <i_epik_Tot_abs_Q>
0

> <s_lp_Force_Field>
S-OPLS

> <r_lp_Energy>
42.3554

> <b_lp_Chiralities_Consistent>
1

> <s_lp_Variant>
CC1=C2C(C[C@H](C3=C(C4=NC(OC)=CC=C4)C=C(F)C=C3)NC2=O)=NC(N)=N1-1

> <s_i_glide_gridfile>
glide-grid_1

> <i_i_glide_lignum>
2338

> <i_i_glide_rotatable_bonds>
3

> <r_i_docking_score>
-7.17873523522766

> <r_i_glide_ligand_efficiency>
-0.256383401258131

> <r_i_glide_ligand_efficiency_sa>
-0.778531007967671

> <r_i_glide_ligand_efficiency_ln>
-1.65706286911588

> <r_i_glide_gscore>
-7.17873523522766

> <r_i_glide_lipo>
-1.94303544101256

> <r_i_glide_hbond>
-0.553524699549492

> <r_i_glide_metal>
0

> <r_i_glide_rewards>
-2.37481740365077

> <r_i_glide_evdw>
-35.2499122619629

> <r_i_glide_ecoul>
-4.84206008911133

> <r_i_glide_erotb>
0.188592381383742

> <r_i_glide_esite>
-0.0071454459337277

> <r_i_glide_emodel>
-54.0930654262158

> <r_i_glide_energy>
-40.0919723510742

> <r_i_glide_einternal>
8.64637851715088

> <i_i_glide_confnum>
8

> <i_i_glide_posenum>
10

> <r_i_glide_eff_state_penalty>
0

> <r_lp_tautomer_probability>
1

> <s_m_subgroup_title>
glide-dock_SP_top1262_2_pv

> <s_m_subgroupid>
glide-dock_SP_top1262_2_pv

> <b_m_subgroup_collapsed>
0

$$$$
O=C(N[C@H](C#N)CC(N)=O)C(C)(C)CS(=O)(C1=CC=C(C2=CC3=C(N(C)N=C3)C=C2)C=C1)=O
                    3D
 Schrodinger Suite 2021-3.
  0  0  0     0  0            999 V3000
M  V30 BEGIN CTAB
M  V30 COUNTS 58 60 0 0 0
M  V30 BEGIN ATOM
M  V30 1 N  23.6833 44.3562 85.2436 0
M  V30 2 C  23.7487 43.4995 86.2553 0
M  V30 3 O  24.6498 42.6674 86.3300 0
M  V30 4 C  22.6485 43.5774 87.3248 0
M  V30 5 C  22.5874 42.3420 88.2540 0 CFG=1
M  V30 6 C  21.7968 42.5767 89.4803 0
M  V30 7 N  21.1874 42.7574 90.4484 0
M  V30 8 N  22.2537 41.1121 87.5208 0
M  V30 9 C  21.0680 40.4779 87.4230 0
M  V30 10 O  20.0791 40.8591 88.0431 0
M  V30 11 C  20.9602 39.2307 86.4830 0
M  V30 12 C  20.2194 38.0868 87.2291 0
M  V30 13 C  20.0936 39.6308 85.2623 0
M  V30 14 C  22.3589 38.7676 85.9514 0
M  V30 15 S  22.5517 36.9627 85.4067 0
M  V30 16 O  22.4786 36.1004 86.5908 0
M  V30 17 O  21.6856 36.7198 84.2455 0
M  V30 18 C  24.2515 36.9151 84.8445 0
M  V30 19 C  25.2503 37.5339 85.5976 0
M  V30 20 C  26.5592 37.5565 85.1305 0
M  V30 21 C  26.8991 36.9241 83.9285 0
M  V30 22 C  25.8895 36.2926 83.1891 0
M  V30 23 C  24.5736 36.2862 83.6437 0
M  V30 24 C  28.3207 36.8909 83.4722 0
M  V30 25 C  29.1664 37.9904 83.6866 0
M  V30 26 C  28.8306 35.7497 82.8418 0
M  V30 27 C  30.1484 35.6510 82.3970 0
M  V30 28 C  30.9651 36.7654 82.6005 0
M  V30 29 C  30.4952 37.9338 83.2433 0
M  V30 30 N  32.2836 37.0321 82.2794 0
M  V30 31 C  33.2536 36.1564 81.6430 0
M  V30 32 N  32.6649 38.2569 82.6952 0
M  V30 33 C  31.6216 38.8101 83.2578 0
M  V30 34 H  24.3845 44.3312 84.5174 0
M  V30 35 H  22.8363 44.8956 85.0714 0
M  V30 36 H  22.8323 44.4749 87.9167 0
M  V30 37 H  21.6831 43.7227 86.8357 0
M  V30 38 H  23.5830 42.1733 88.6696 0
M  V30 39 H  22.9587 40.8428 86.8512 0
M  V30 40 H  19.9695 37.2594 86.5640 0
M  V30 41 H  20.8245 37.6780 88.0406 0
M  V30 42 H  19.2737 38.4155 87.6649 0
M  V30 43 H  19.9605 38.7950 84.5733 0
M  V30 44 H  19.0948 39.9552 85.5614 0
M  V30 45 H  20.5411 40.4484 84.6920 0
M  V30 46 H  22.8500 39.4695 85.2764 0
M  V30 47 H  23.0300 38.7902 86.8075 0
M  V30 48 H  25.0348 38.0015 86.5451 0
M  V30 49 H  27.3185 38.0355 85.7323 0
M  V30 50 H  26.1207 35.8115 82.2501 0
M  V30 51 H  23.8056 35.8006 83.0581 0
M  V30 52 H  28.8015 38.8833 84.1709 0
M  V30 53 H  28.1925 34.8928 82.6865 0
M  V30 54 H  30.5067 34.7583 81.9060 0
M  V30 55 H  32.7679 35.6011 80.8414 0
M  V30 56 H  34.0780 36.7355 81.2244 0
M  V30 57 H  33.6388 35.4567 82.3849 0
M  V30 58 H  31.6789 39.8090 83.6660 0
M  V30 END ATOM
M  V30 BEGIN BOND
M  V30 1 1 1 2
M  V30 2 1 1 34
M  V30 3 1 1 35
M  V30 4 2 2 3
M  V30 5 1 2 4
M  V30 6 1 4 5
M  V30 7 1 4 36
M  V30 8 1 4 37
M  V30 9 1 5 6
M  V30 10 1 5 8
M  V30 11 1 5 38
M  V30 12 3 6 7
M  V30 13 1 8 9
M  V30 14 1 8 39
M  V30 15 2 9 10
M  V30 16 1 9 11
M  V30 17 1 11 12
M  V30 18 1 11 13
M  V30 19 1 11 14
M  V30 20 1 12 40
M  V30 21 1 12 41
M  V30 22 1 12 42
M  V30 23 1 13 43
M  V30 24 1 13 44
M  V30 25 1 13 45
M  V30 26 1 14 15
M  V30 27 1 14 46
M  V30 28 1 14 47
M  V30 29 2 15 16
M  V30 30 2 15 17
M  V30 31 1 15 18
M  V30 32 2 18 19
M  V30 33 1 18 23
M  V30 34 1 19 20
M  V30 35 1 19 48
M  V30 36 2 20 21
M  V30 37 1 20 49
M  V30 38 1 21 22
M  V30 39 1 21 24
M  V30 40 2 22 23
M  V30 41 1 22 50
M  V30 42 1 23 51
M  V30 43 2 24 25
M  V30 44 1 24 26
M  V30 45 1 25 29
M  V30 46 1 25 52
M  V30 47 2 26 27
M  V30 48 1 26 53
M  V30 49 1 27 28
M  V30 50 1 27 54
M  V30 51 2 28 29
M  V30 52 1 28 30
M  V30 53 1 29 33
M  V30 54 1 30 31
M  V30 55 1 30 32
M  V30 56 1 31 55
M  V30 57 1 31 56
M  V30 58 1 31 57
M  V30 59 2 32 33
M  V30 60 1 33 58
M  V30 END BOND
M  V30 END CTAB
M  END
> <s_m_entry_id>
1646

> <s_m_entry_name>
result.7723

> <s_m_Source_Path>
D:\OneDrive - zju.edu.cn\DOC\A-Finished\LCK_VS\Planet\LCK-8617

> <s_m_Source_File>
glide-dock_SP_top1262_2_pv.maegz

> <i_m_Source_File_Index>
1646

> <PLANET_affinity>
7.536

> <i_lp_mmshare_version>
54117

> <i_f3d_flags>
0

> <s_epik_input>
W05IMl1DKD1PKVtDSDJdW0NAQEhdKEMjTilbTkhdQyg9TylDKFtDSDNdKShbQ0gzXSlbQ0gyXVMoPU8pKD1PKWMxW2NIXVtjSF1jKFtjSF1bY0hdMSktYyhbY0hdW2NIXTIpW2NIXWMoYzIzKVtjSF1ubjNbQ0gzXQ==

> <s_epik_cmdline>
J2VwaWtfcHl0aG9uJywgJy1waCcsICc3LjAnLCAnLXRuJywgJzgnLCAnLW1hJywgJzUwMCcsICctaW1hZScsICc8aW5maWxlLm1hZT4nLCAnLW9tYWUnLCAnPG91dGZpbGUubWFlPic=

> <r_epik_Ionization_Penalty>
  0.0000

> <r_epik_Ionization_Penalty_Charging>
  0.0000

> <r_epik_Ionization_Penalty_Neutral>
  0.0000

> <r_epik_State_Penalty>
  0.0000

> <r_epik_Charging_Adjusted_Penalty>
0

> <i_epik_Tot_Q>
0

> <i_epik_Tot_abs_Q>
0

> <s_lp_Force_Field>
S-OPLS

> <r_lp_Energy>
28.6999

> <b_lp_Chiralities_Consistent>
1

> <s_lp_Variant>
O=C(N[C@H](C#N)CC(N)=O)C(C)(C)CS(=O)(C1=CC=C(C2=CC3=C(N(C)N=C3)C=C2)C=C1)=O-1

> <s_i_glide_gridfile>
glide-grid_1

> <i_i_glide_lignum>
1882

> <i_i_glide_rotatable_bonds>
9

> <r_i_docking_score>
-7.17114622503316

> <r_i_glide_ligand_efficiency>
-0.217307461364641

> <r_i_glide_ligand_efficiency_sa>
-0.697021141678949

> <r_i_glide_ligand_efficiency_ln>
-1.59482579023939

> <r_i_glide_gscore>
-7.17114622503316

> <r_i_glide_lipo>
-2.72818022141695

> <r_i_glide_hbond>
-0.638404517807543

> <r_i_glide_metal>
0

> <r_i_glide_rewards>
-0.668636319928317

> <r_i_glide_evdw>
-38.9319381713867

> <r_i_glide_ecoul>
-11.7260513305664

> <r_i_glide_erotb>
0.738648708828467

> <r_i_glide_esite>
-0.169069266554523

> <r_i_glide_emodel>
-69.5041674945622

> <r_i_glide_energy>
-50.6579895019531

> <r_i_glide_einternal>
6.5430965423584

> <i_i_glide_confnum>
29

> <i_i_glide_posenum>
58

> <r_i_glide_eff_state_penalty>
0

> <r_lp_tautomer_probability>
1

> <s_m_subgroup_title>
glide-dock_SP_top1262_2_pv

> <s_m_subgroupid>
glide-dock_SP_top1262_2_pv

> <b_m_subgroup_collapsed>
0

$$$$
O=C(NCCCNC1=C(C=NC(NC2=CC=CC(NC(N3CCCC3)=O)=C2)=N1)I)C4=CC=CS4
                    3D
 Schrodinger Suite 2021-3.
  0  0  0     0  0            999 V3000
M  V30 BEGIN CTAB
M  V30 COUNTS 60 63 0 0 0
M  V30 BEGIN ATOM
M  V30 1 S  26.5905 45.5080 86.2133 0
M  V30 2 C  27.6833 46.2948 85.1168 0
M  V30 3 C  28.4848 45.3856 84.4465 0
M  V30 4 C  28.2488 44.0655 84.8427 0
M  V30 5 C  27.2463 43.9407 85.8089 0
M  V30 6 C  26.7242 42.7414 86.4294 0
M  V30 7 O  25.7516 42.7638 87.1863 0
M  V30 8 N  27.3974 41.6151 86.1366 0
M  V30 9 C  27.0643 40.2870 86.6527 0
M  V30 10 C  25.8717 39.6345 85.9265 0
M  V30 11 C  25.5210 38.2460 86.4815 0
M  V30 12 N  24.4648 37.5719 85.7292 0
M  V30 13 C  24.7427 36.7629 84.6143 0
M  V30 14 C  23.6978 36.1182 83.9388 0
M  V30 15 I  21.6820 36.3563 84.4586 0
M  V30 16 C  24.0425 35.3138 82.8498 0
M  V30 17 N  25.3278 35.1566 82.4434 0
M  V30 18 C  26.2796 35.8324 83.1334 0
M  V30 19 N  26.0330 36.6149 84.2098 0
M  V30 20 N  27.5860 35.7127 82.6376 0
M  V30 21 C  28.8149 36.3328 82.9382 0
M  V30 22 C  29.0255 37.1566 84.0524 0
M  V30 23 C  30.2615 37.7636 84.2665 0
M  V30 24 C  31.2995 37.5696 83.3601 0
M  V30 25 C  31.1068 36.7627 82.2287 0
M  V30 26 C  29.8767 36.1173 82.0538 0
M  V30 27 N  32.0927 36.5630 81.2439 0
M  V30 28 C  33.0580 37.4324 80.8609 0
M  V30 29 O  33.1361 38.5818 81.2999 0
M  V30 30 N  33.8724 36.9914 79.8674 0
M  V30 31 C  34.7858 37.9047 79.1657 0
M  V30 32 C  35.4171 37.0186 78.0943 0
M  V30 33 C  35.3883 35.6320 78.7109 0
M  V30 34 C  34.0521 35.5908 79.4478 0
M  V30 35 H  27.6676 47.3693 85.0044 0
M  V30 36 H  29.2282 45.6581 83.7086 0
M  V30 37 H  28.7999 43.2359 84.4268 0
M  V30 38 H  28.2129 41.6846 85.5469 0
M  V30 39 H  27.9422 39.6425 86.5662 0
M  V30 40 H  26.8734 40.3320 87.7286 0
M  V30 41 H  24.9953 40.2829 85.9915 0
M  V30 42 H  26.1027 39.5502 84.8637 0
M  V30 43 H  26.4204 37.6283 86.5112 0
M  V30 44 H  25.2320 38.3202 87.5303 0
M  V30 45 H  23.5143 37.8910 85.8419 0
M  V30 46 H  23.2824 34.7873 82.2866 0
M  V30 47 H  27.6244 35.1555 81.7934 0
M  V30 48 H  28.2587 37.3327 84.7873 0
M  V30 49 H  30.4182 38.3806 85.1394 0
M  V30 50 H  32.2462 38.0546 83.5442 0
M  V30 51 H  29.7299 35.4802 81.1946 0
M  V30 52 H  32.0044 35.7113 80.7048 0
M  V30 53 H  34.2574 38.7493 78.7185 0
M  V30 54 H  35.5537 38.2573 79.8544 0
M  V30 55 H  34.8016 37.0321 77.1911 0
M  V30 56 H  36.4184 37.3502 77.8120 0
M  V30 57 H  36.2099 35.5198 79.4235 0
M  V30 58 H  35.4829 34.8295 77.9788 0
M  V30 59 H  34.1008 34.8937 80.2837 0
M  V30 60 H  33.2819 35.3123 78.7313 0
M  V30 END ATOM
M  V30 BEGIN BOND
M  V30 1 1 1 2
M  V30 2 1 1 5
M  V30 3 2 2 3
M  V30 4 1 2 35
M  V30 5 1 3 4
M  V30 6 1 3 36
M  V30 7 2 4 5
M  V30 8 1 4 37
M  V30 9 1 5 6
M  V30 10 2 6 7
M  V30 11 1 6 8
M  V30 12 1 8 9
M  V30 13 1 8 38
M  V30 14 1 9 10
M  V30 15 1 9 39
M  V30 16 1 9 40
M  V30 17 1 10 11
M  V30 18 1 10 41
M  V30 19 1 10 42
M  V30 20 1 11 12
M  V30 21 1 11 43
M  V30 22 1 11 44
M  V30 23 1 12 13
M  V30 24 1 12 45
M  V30 25 2 13 14
M  V30 26 1 13 19
M  V30 27 1 14 15
M  V30 28 1 14 16
M  V30 29 2 16 17
M  V30 30 1 16 46
M  V30 31 1 17 18
M  V30 32 2 18 19
M  V30 33 1 18 20
M  V30 34 1 20 21
M  V30 35 1 20 47
M  V30 36 2 21 22
M  V30 37 1 21 26
M  V30 38 1 22 23
M  V30 39 1 22 48
M  V30 40 2 23 24
M  V30 41 1 23 49
M  V30 42 1 24 25
M  V30 43 1 24 50
M  V30 44 2 25 26
M  V30 45 1 25 27
M  V30 46 1 26 51
M  V30 47 1 27 28
M  V30 48 1 27 52
M  V30 49 2 28 29
M  V30 50 1 28 30
M  V30 51 1 30 31
M  V30 52 1 30 34
M  V30 53 1 31 32
M  V30 54 1 31 53
M  V30 55 1 31 54
M  V30 56 1 32 33
M  V30 57 1 32 55
M  V30 58 1 32 56
M  V30 59 1 33 34
M  V30 60 1 33 57
M  V30 61 1 33 58
M  V30 62 1 34 59
M  V30 63 1 34 60
M  V30 END BOND
M  V30 END CTAB
M  END
> <s_m_entry_id>
1663

> <s_m_entry_name>
result.2480

> <s_m_Source_Path>
D:\OneDrive - zju.edu.cn\DOC\A-Finished\LCK_VS\Planet\LCK-8617

> <s_m_Source_File>
glide-dock_SP_top1262_2_pv.maegz

> <i_m_Source_File_Index>
1663

> <PLANET_affinity>
8.335

> <i_lp_mmshare_version>
54117

> <i_f3d_flags>
0

> <s_epik_input>
W2NIXTFbY0hdW2NIXXNjMUMoPU8pW05IXVtDSDJdW0NIMl1bQ0gyXVtOSF1jMmMoSSlbY0hdbmMobjIpW05IXWMzW2NIXVtjSF1bY0hdYyhbY0hdMylbTkhdQyg9TylONFtDSDJdW0NIMl1bQ0gyXVtDSDJdNA==

> <s_epik_cmdline>
J2VwaWtfcHl0aG9uJywgJy1waCcsICc3LjAnLCAnLXRuJywgJzgnLCAnLW1hJywgJzUwMCcsICctaW1hZScsICc8aW5maWxlLm1hZT4nLCAnLW9tYWUnLCAnPG91dGZpbGUubWFlPic=

> <r_epik_Ionization_Penalty>
  0.0041

> <r_epik_Ionization_Penalty_Charging>
  0.0000

> <r_epik_Ionization_Penalty_Neutral>
  0.0041

> <r_epik_State_Penalty>
  0.0029

> <r_epik_Charging_Adjusted_Penalty>
0.00287689

> <i_epik_Tot_Q>
0

> <i_epik_Tot_abs_Q>
0

> <s_lp_Force_Field>
S-OPLS

> <r_lp_Energy>
43.1132

> <b_lp_Chiralities_Consistent>
1

> <s_lp_Variant>
O=C(NCCCNC1=C(C=NC(NC2=CC=CC(NC(N3CCCC3)=O)=C2)=N1)I)C4=CC=CS4-1

> <s_i_glide_gridfile>
glide-grid_1

> <i_i_glide_lignum>
934

> <i_i_glide_rotatable_bonds>
12

> <r_i_docking_score>
-7.15974594517791

> <r_i_glide_ligand_efficiency>
-0.210580763093468

> <r_i_glide_ligand_efficiency_sa>
-0.682199924437723

> <r_i_glide_ligand_efficiency_ln>
-1.5817887033612

> <r_i_glide_gscore>
-7.16264594517791

> <r_i_glide_lipo>
-1.86360459852596

> <r_i_glide_hbond>
-0.838517244228612

> <r_i_glide_metal>
0

> <r_i_glide_rewards>
-1.50037784022165

> <r_i_glide_evdw>
-44.0369262695312

> <r_i_glide_ecoul>
-7.42680883407593

> <r_i_glide_erotb>
0.384555290311332

> <r_i_glide_esite>
-0.0288339139250698

> <r_i_glide_emodel>
-72.3828532913997

> <r_i_glide_energy>
-51.4637351036072

> <r_i_glide_einternal>
8.90886116027832

> <i_i_glide_confnum>
607

> <i_i_glide_posenum>
302

> <r_i_glide_eff_state_penalty>
0.0029

> <r_lp_tautomer_probability>
1

> <s_m_subgroup_title>
glide-dock_SP_top1262_2_pv

> <s_m_subgroupid>
glide-dock_SP_top1262_2_pv

> <b_m_subgroup_collapsed>
0

$$$$
O=C1NCCC12CCN(C3=C(Cl)C(N)=NC=C3C4=CC5=C(N(C)N=C5)C=C4)CC2
                    3D
 Schrodinger Suite 2021-3.
  0  0  0     0  0            999 V3000
M  V30 BEGIN CTAB
M  V30 COUNTS 52 56 0 0 0
M  V30 BEGIN ATOM
M  V30 1 C  23.7506 42.0305 86.9628 0
M  V30 2 C  23.3120 42.9735 88.0710 0
M  V30 3 N  22.0154 42.4506 88.4705 0
M  V30 4 C  21.7485 41.1947 88.0894 0
M  V30 5 O  20.8028 40.4950 88.4434 0
M  V30 6 C  22.8760 40.7766 87.1296 0
M  V30 7 C  22.2666 40.3317 85.7744 0
M  V30 8 C  23.3236 39.6951 84.8545 0
M  V30 9 N  23.9359 38.5353 85.5187 0
M  V30 10 C  24.6633 38.9417 86.7270 0
M  V30 11 C  23.6812 39.5872 87.7364 0
M  V30 12 C  24.2095 37.4043 84.7605 0
M  V30 13 C  25.4757 37.1672 84.1820 0
M  V30 14 Cl 26.8410 38.1959 84.5156 0
M  V30 15 C  25.6031 36.1078 83.2729 0
M  V30 16 N  26.8234 35.8369 82.6544 0
M  V30 17 N  24.5660 35.3212 82.9054 0
M  V30 18 C  23.3584 35.5563 83.4739 0
M  V30 19 C  23.1300 36.5608 84.4156 0
M  V30 20 C  21.7777 36.7153 85.0194 0
M  V30 21 C  20.7308 37.2620 84.2692 0
M  V30 22 C  21.5708 36.3753 86.3587 0
M  V30 23 C  20.3524 36.5882 87.0060 0
M  V30 24 C  19.3328 37.1783 86.2534 0
M  V30 25 C  19.5017 37.5128 84.8914 0
M  V30 26 N  18.0392 37.5567 86.5627 0
M  V30 27 C  17.3661 37.5084 87.8476 0
M  V30 28 N  17.4202 38.1274 85.5085 0
M  V30 29 C  18.2526 38.0757 84.5019 0
M  V30 30 H  24.8233 41.8394 87.0015 0
M  V30 31 H  23.5631 42.5141 86.0005 0
M  V30 32 H  23.2218 43.9968 87.6987 0
M  V30 33 H  24.0062 42.9826 88.9109 0
M  V30 34 H  21.3927 42.9780 89.0622 0
M  V30 35 H  21.7802 41.1641 85.2620 0
M  V30 36 H  21.4968 39.5713 85.9286 0
M  V30 37 H  24.1031 40.4121 84.5896 0
M  V30 38 H  22.8370 39.3975 83.9252 0
M  V30 39 H  25.1175 38.0604 87.1848 0
M  V30 40 H  25.4705 39.6269 86.4660 0
M  V30 41 H  23.0057 38.7854 88.0429 0
M  V30 42 H  24.2248 39.9000 88.6300 0
M  V30 43 H  27.6163 36.4172 82.8769 0
M  V30 44 H  26.8803 35.1575 81.9065 0
M  V30 45 H  22.5592 34.8937 83.1797 0
M  V30 46 H  20.8829 37.5497 83.2437 0
M  V30 47 H  22.3866 35.9507 86.9243 0
M  V30 48 H  20.2123 36.3222 88.0434 0
M  V30 49 H  17.6390 36.5892 88.3672 0
M  V30 50 H  17.6841 38.3625 88.4432 0
M  V30 51 H  16.2827 37.5421 87.7195 0
M  V30 52 H  17.9666 38.4408 83.5271 0
M  V30 END ATOM
M  V30 BEGIN BOND
M  V30 1 1 1 2
M  V30 2 1 1 6
M  V30 3 1 1 30
M  V30 4 1 1 31
M  V30 5 1 2 3
M  V30 6 1 2 32
M  V30 7 1 2 33
M  V30 8 1 3 4
M  V30 9 1 3 34
M  V30 10 2 4 5
M  V30 11 1 4 6
M  V30 12 1 6 7
M  V30 13 1 6 11
M  V30 14 1 7 8
M  V30 15 1 7 35
M  V30 16 1 7 36
M  V30 17 1 8 9
M  V30 18 1 8 37
M  V30 19 1 8 38
M  V30 20 1 9 10
M  V30 21 1 9 12
M  V30 22 1 10 11
M  V30 23 1 10 39
M  V30 24 1 10 40
M  V30 25 1 11 41
M  V30 26 1 11 42
M  V30 27 2 12 13
M  V30 28 1 12 19
M  V30 29 1 13 14
M  V30 30 1 13 15
M  V30 31 1 15 16
M  V30 32 2 15 17
M  V30 33 1 16 43
M  V30 34 1 16 44
M  V30 35 1 17 18
M  V30 36 2 18 19
M  V30 37 1 18 45
M  V30 38 1 19 20
M  V30 39 2 20 21
M  V30 40 1 20 22
M  V30 41 1 21 25
M  V30 42 1 21 46
M  V30 43 2 22 23
M  V30 44 1 22 47
M  V30 45 1 23 24
M  V30 46 1 23 48
M  V30 47 2 24 25
M  V30 48 1 24 26
M  V30 49 1 25 29
M  V30 50 1 26 27
M  V30 51 1 26 28
M  V30 52 1 27 49
M  V30 53 1 27 50
M  V30 54 1 27 51
M  V30 55 2 28 29
M  V30 56 1 29 52
M  V30 END BOND
M  V30 END CTAB
M  END
> <s_m_entry_id>
1664

> <s_m_entry_name>
result.804

> <s_m_Source_Path>
D:\OneDrive - zju.edu.cn\DOC\A-Finished\LCK_VS\Planet\LCK-8617

> <s_m_Source_File>
glide-dock_SP_top1262_2_pv.maegz

> <i_m_Source_File_Index>
1664

> <PLANET_affinity>
7.702

> <i_lp_mmshare_version>
54117

> <i_f3d_flags>
0

> <s_epik_input>
Tz1DMVtOSF1bQ0gyXVtDSDJdQzEyW0NIMl1bQ0gyXU4oW0NIMl1bQ0gyXTIpYzNjKENsKWMoW05IMl0pbltjSF1jMy1jKFtjSF1bY0hdNClbY0hdYyhjNDUpW2NIXW5uNVtDSDNd

> <s_epik_cmdline>
J2VwaWtfcHl0aG9uJywgJy1waCcsICc3LjAnLCAnLXRuJywgJzgnLCAnLW1hJywgJzUwMCcsICctaW1hZScsICc8aW5maWxlLm1hZT4nLCAnLW9tYWUnLCAnPG91dGZpbGUubWFlPic=

> <r_epik_Ionization_Penalty>
  0.0010

> <r_epik_Ionization_Penalty_Charging>
  0.0000

> <r_epik_Ionization_Penalty_Neutral>
  0.0010

> <r_epik_State_Penalty>
  0.0006

> <r_epik_Charging_Adjusted_Penalty>
0.000645123

> <i_epik_Tot_Q>
0

> <i_epik_Tot_abs_Q>
0

> <s_lp_Force_Field>
S-OPLS

> <r_lp_Energy>
47.9434

> <b_lp_Chiralities_Consistent>
1

> <s_lp_Variant>
O=C1NCCC12CCN(C3=C(Cl)C(N)=NC=C3C4=CC5=C(N(C)N=C5)C=C4)CC2-1

> <s_i_glide_gridfile>
glide-grid_1

> <i_i_glide_lignum>
1649

> <i_i_glide_rotatable_bonds>
2

> <r_i_docking_score>
-7.15939197792814

> <r_i_glide_ligand_efficiency>
-0.246875585445798

> <r_i_glide_ligand_efficiency_sa>
-0.758480014164827

> <r_i_glide_ligand_efficiency_ln>
-1.63931921642925

> <r_i_glide_gscore>
-7.15999197792815

> <r_i_glide_lipo>
-3.14334793686647

> <r_i_glide_hbond>
-0.294612553697577

> <r_i_glide_metal>
0

> <r_i_glide_rewards>
-0.966499008437096

> <r_i_glide_evdw>
-43.1205978393555

> <r_i_glide_ecoul>
-5.06653261184692

> <r_i_glide_erotb>
0.233412849626275

> <r_i_glide_esite>
-0.0729355448084622

> <r_i_glide_emodel>
-67.5048206672802

> <r_i_glide_energy>
-48.1871304512024

> <r_i_glide_einternal>
2.18864846229553

> <i_i_glide_confnum>
5

> <i_i_glide_posenum>
277

> <r_i_glide_eff_state_penalty>
0.0006

> <r_lp_tautomer_probability>
1

> <s_m_subgroup_title>
glide-dock_SP_top1262_2_pv

> <s_m_subgroupid>
glide-dock_SP_top1262_2_pv

> <b_m_subgroup_collapsed>
0

$$$$
ClC(C=NC(NC1=C(OC)C=C(N2CCC(N)CC2)C=C1)=N3)=C3C4=CNC5=C4C=CC=C5
                    3D
 Schrodinger Suite 2021-3.
  0  0  0     0  0            999 V3000
M  V30 BEGIN CTAB
M  V30 COUNTS 58 62 0 0 0
M  V30 BEGIN ATOM
M  V30 1 C  19.5419 38.3823 87.2085 0
M  V30 2 C  19.2262 37.0903 87.6318 0
M  V30 3 C  20.0139 35.9925 87.2923 0
M  V30 4 C  21.1407 36.1352 86.4861 0
M  V30 5 C  21.4933 37.4150 86.0180 0
M  V30 6 C  20.6872 38.5280 86.4146 0
M  V30 7 C  22.5469 37.9222 85.1743 0
M  V30 8 C  22.3864 39.2974 85.1550 0
M  V30 9 N  21.2715 39.6517 85.8718 0
M  V30 10 C  23.5883 37.1344 84.4487 0
M  V30 11 N  24.8604 37.6022 84.5821 0
M  V30 12 C  25.8431 36.9360 83.9237 0
M  V30 13 N  25.6518 35.8278 83.1577 0
M  V30 14 C  24.3726 35.3947 83.0198 0
M  V30 15 C  23.2972 36.0248 83.6433 0
M  V30 16 Cl 21.6839 35.5566 83.2437 0
M  V30 17 N  27.1266 37.4723 84.1013 0
M  V30 18 C  28.4273 37.1090 83.6971 0
M  V30 19 C  29.5107 37.7577 84.3132 0
M  V30 20 O  29.2271 38.7556 85.2357 0
M  V30 21 C  30.2921 39.4505 85.8797 0
M  V30 22 C  30.8196 37.3484 84.0027 0
M  V30 23 C  31.0809 36.3332 83.0726 0
M  V30 24 C  29.9845 35.7458 82.4293 0
M  V30 25 C  28.6802 36.1187 82.7405 0
M  V30 26 N  32.3870 35.8840 82.8728 0
M  V30 27 C  32.7321 34.6416 82.1557 0
M  V30 28 C  33.8887 33.8954 82.8590 0
M  V30 29 C  35.1300 34.7849 83.0682 0
M  V30 30 N  36.0959 34.0861 84.0434 0 CHG=1
M  V30 31 C  34.7312 36.1651 83.6333 0
M  V30 32 C  33.5523 36.7874 82.8538 0
M  V30 33 H  18.9208 39.2231 87.4814 0
M  V30 34 H  18.3499 36.9365 88.2463 0
M  V30 35 H  19.7381 35.0115 87.6521 0
M  V30 36 H  21.7289 35.2697 86.2212 0
M  V30 37 H  22.9641 40.0604 84.6524 0
M  V30 38 H  20.9588 40.6104 85.9607 0
M  V30 39 H  24.2038 34.5498 82.3698 0
M  V30 40 H  27.1316 38.2551 84.7400 0
M  V30 41 H  29.8774 40.1700 86.5873 0
M  V30 42 H  30.9366 38.7708 86.4436 0
M  V30 43 H  30.8978 40.0044 85.1587 0
M  V30 44 H  31.6494 37.7953 84.5234 0
M  V30 45 H  30.1185 34.9802 81.6795 0
M  V30 46 H  27.8861 35.6187 82.2116 0
M  V30 47 H  32.9721 34.8703 81.1146 0
M  V30 48 H  31.8898 33.9570 82.1356 0
M  V30 49 H  34.1516 32.9775 82.3303 0
M  V30 50 H  33.4954 33.5407 83.8161 0
M  V30 51 H  35.6067 34.9385 82.0980 0
M  V30 52 H  35.6627 33.9533 84.9570 0
M  V30 53 H  36.9342 34.6306 84.1739 0
M  V30 54 H  34.4150 36.0786 84.6754 0
M  V30 55 H  35.5917 36.8372 83.6735 0
M  V30 56 H  33.8323 36.9685 81.8144 0
M  V30 57 H  33.3285 37.7668 83.2719 0
M  V30 58 H  36.3486 33.1695 83.7013 0
M  V30 END ATOM
M  V30 BEGIN BOND
M  V30 1 2 1 2
M  V30 2 1 1 6
M  V30 3 1 1 33
M  V30 4 1 2 3
M  V30 5 1 2 34
M  V30 6 2 3 4
M  V30 7 1 3 35
M  V30 8 1 4 5
M  V30 9 1 4 36
M  V30 10 2 5 6
M  V30 11 1 5 7
M  V30 12 1 6 9
M  V30 13 2 7 8
M  V30 14 1 7 10
M  V30 15 1 8 9
M  V30 16 1 8 37
M  V30 17 1 9 38
M  V30 18 2 10 11
M  V30 19 1 10 15
M  V30 20 1 11 12
M  V30 21 2 12 13
M  V30 22 1 12 17
M  V30 23 1 13 14
M  V30 24 2 14 15
M  V30 25 1 14 39
M  V30 26 1 15 16
M  V30 27 1 17 18
M  V30 28 1 17 40
M  V30 29 2 18 19
M  V30 30 1 18 25
M  V30 31 1 19 20
M  V30 32 1 19 22
M  V30 33 1 20 21
M  V30 34 1 21 41
M  V30 35 1 21 42
M  V30 36 1 21 43
M  V30 37 2 22 23
M  V30 38 1 22 44
M  V30 39 1 23 24
M  V30 40 1 23 26
M  V30 41 2 24 25
M  V30 42 1 24 45
M  V30 43 1 25 46
M  V30 44 1 26 27
M  V30 45 1 26 32
M  V30 46 1 27 28
M  V30 47 1 27 47
M  V30 48 1 27 48
M  V30 49 1 28 29
M  V30 50 1 28 49
M  V30 51 1 28 50
M  V30 52 1 29 30
M  V30 53 1 29 31
M  V30 54 1 29 51
M  V30 55 1 30 52
M  V30 56 1 30 53
M  V30 57 1 30 58
M  V30 58 1 31 32
M  V30 59 1 31 54
M  V30 60 1 31 55
M  V30 61 1 32 56
M  V30 62 1 32 57
M  V30 END BOND
M  V30 END CTAB
M  END
> <s_m_entry_id>
1670

> <s_m_entry_name>
result.470

> <s_m_Source_Path>
D:\OneDrive - zju.edu.cn\DOC\A-Finished\LCK_VS\Planet\LCK-8617

> <s_m_Source_File>
glide-dock_SP_top1262_2_pv.maegz

> <i_m_Source_File_Index>
1670

> <PLANET_affinity>
8.284

> <i_lp_mmshare_version>
54117

> <i_f3d_flags>
0

> <s_epik_input>
W2NIXTFbY0hdW2NIXVtjSF1jKGMxMilbbkhdW2NIXWMyLWMzbmMobltjSF1jM0NsKVtOSF1jNGMoT1tDSDNdKVtjSF1jKFtjSF1bY0hdNClONVtDSDJdW0NIMl1bQ0hdKFtOSDJdKVtDSDJdW0NIMl01

> <s_epik_cmdline>
J2VwaWtfcHl0aG9uJywgJy1waCcsICc3LjAnLCAnLXRuJywgJzgnLCAnLW1hJywgJzUwMCcsICctaW1hZScsICc8aW5maWxlLm1hZT4nLCAnLW9tYWUnLCAnPG91dGZpbGUubWFlPic=

> <r_epik_Ionization_Penalty>
  0.0168

> <r_epik_Ionization_Penalty_Charging>
  0.0049

> <r_epik_Ionization_Penalty_Neutral>
  0.0119

> <r_epik_State_Penalty>
  0.0145

> <r_epik_Charging_Adjusted_Penalty>
0.0193563

> <i_epik_Tot_Q>
1

> <i_epik_Tot_abs_Q>
1

> <s_lp_Force_Field>
S-OPLS

> <r_lp_Energy>
68.3832

> <b_lp_Chiralities_Consistent>
1

> <s_lp_Variant>
ClC(C=NC(NC1=C(OC)C=C(N2CCC(N)CC2)C=C1)=N3)=C3C4=CNC5=C4C=CC=C5-1

> <s_i_glide_gridfile>
glide-grid_1

> <i_i_glide_lignum>
982

> <i_i_glide_rotatable_bonds>
5

> <r_i_docking_score>
-7.15757791126552

> <r_i_glide_ligand_efficiency>
-0.223674309727047

> <r_i_glide_ligand_efficiency_sa>
-0.710121668297587

> <r_i_glide_ligand_efficiency_ln>
-1.60277680253733

> <r_i_glide_gscore>
-7.17207791126552

> <r_i_glide_lipo>
-3.28233629594958

> <r_i_glide_hbond>
-0.2

> <r_i_glide_metal>
0

> <r_i_glide_rewards>
-0.829874499229751

> <r_i_glide_evdw>
-41.4162139892578

> <r_i_glide_ecoul>
-7.35821437835693

> <r_i_glide_erotb>
0.396030734317645

> <r_i_glide_esite>
-0.0813549941873986

> <r_i_glide_emodel>
-74.012301591547

> <r_i_glide_energy>
-48.7744283676147

> <r_i_glide_einternal>
2.97954630851746

> <i_i_glide_confnum>
21

> <i_i_glide_posenum>
273

> <r_i_glide_eff_state_penalty>
0.0145

> <r_lp_tautomer_probability>
1

> <s_m_subgroup_title>
glide-dock_SP_top1262_2_pv

> <s_m_subgroupid>
glide-dock_SP_top1262_2_pv

> <b_m_subgroup_collapsed>
0

$$$$
COC1=C(OC)C2=C[N+]3=C(C(C(CC3)=C4)=CC5=C4OCO5)C(CC6=CC=CC=C6F)=C2C=C1.[Br-]
                    3D
 Schrodinger Suite 2021-3.
  0  0  0     0  0            999 V3000
M  V30 BEGIN CTAB
M  V30 COUNTS 56 61 0 0 0
M  V30 BEGIN ATOM
M  V30 1 F  27.2808 39.6028 88.4650 0
M  V30 2 C  26.6729 40.3608 87.5245 0
M  V30 3 C  26.8840 41.7394 87.5141 0
M  V30 4 C  26.2648 42.5356 86.5519 0
M  V30 5 C  25.4334 41.9519 85.5959 0
M  V30 6 C  25.2217 40.5732 85.6040 0
M  V30 7 C  25.8398 39.7631 86.5706 0
M  V30 8 C  25.6508 38.2425 86.6026 0
M  V30 9 C  24.6621 37.6304 85.5913 0
M  V30 10 C  23.2616 37.7079 85.9087 0
M  V30 11 C  22.3358 37.0079 85.0857 0
M  V30 12 C  22.7320 38.4584 86.9977 0
M  V30 13 C  21.3653 38.4900 87.2531 0
M  V30 14 C  20.4598 37.8068 86.4392 0
M  V30 15 O  19.1048 37.7612 86.7050 0
M  V30 16 C  18.4891 38.8539 87.3784 0
M  V30 17 C  20.9350 37.0979 85.3266 0
M  V30 18 O  20.0710 36.4729 84.4551 0
M  V30 19 C  19.1769 37.3479 83.7613 0
M  V30 20 C  25.0891 36.9253 84.4334 0
M  V30 21 N  24.1704 36.1797 83.7439 0 CHG=1
M  V30 22 C  22.8544 36.2251 84.0408 0
M  V30 23 C  24.5610 35.3123 82.5963 0
M  V30 24 C  25.9332 34.6695 82.8838 0
M  V30 25 C  26.9422 35.7563 83.1880 0
M  V30 26 C  26.5164 36.8928 83.9243 0
M  V30 27 C  27.4209 37.9631 84.0912 0
M  V30 28 C  28.7252 37.8204 83.6429 0
M  V30 29 C  29.1400 36.6956 83.0024 0
M  V30 30 C  28.2688 35.6530 82.7352 0
M  V30 31 O  30.4384 36.8371 82.6286 0
M  V30 32 C  30.8816 38.0117 83.2564 0
M  V30 33 O  29.7466 38.7164 83.6899 0
M  V30 34 H  27.5328 42.1884 88.2533 0
M  V30 35 H  26.4297 43.6038 86.5429 0
M  V30 36 H  24.9539 42.5696 84.8494 0
M  V30 37 H  24.5806 40.1475 84.8466 0
M  V30 38 H  26.6231 37.7613 86.5201 0
M  V30 39 H  25.3411 37.9581 87.6089 0
M  V30 40 H  23.3877 39.0220 87.6431 0
M  V30 41 H  21.0156 39.0553 88.1017 0
M  V30 42 H  17.4086 38.7563 87.2822 0
M  V30 43 H  18.7722 39.8157 86.9471 0
M  V30 44 H  18.7242 38.8501 88.4427 0
M  V30 45 H  18.4255 36.7570 83.2435 0
M  V30 46 H  19.7129 37.9556 83.0262 0
M  V30 47 H  18.6241 38.0334 84.4015 0
M  V30 48 H  22.1937 35.6452 83.4086 0
M  V30 49 H  23.8038 34.5407 82.4428 0
M  V30 50 H  24.5864 35.9538 81.7131 0
M  V30 51 H  25.8707 34.0046 83.7456 0
M  V30 52 H  26.2713 34.0624 82.0435 0
M  V30 53 H  27.1252 38.8902 84.5474 0
M  V30 54 H  28.6002 34.7844 82.1834 0
M  V30 55 H  31.4955 37.7456 84.1209 0
M  V30 56 H  31.4718 38.6175 82.5665 0
M  V30 END ATOM
M  V30 BEGIN BOND
M  V30 1 1 1 2
M  V30 2 2 2 3
M  V30 3 1 2 7
M  V30 4 1 3 4
M  V30 5 1 3 34
M  V30 6 2 4 5
M  V30 7 1 4 35
M  V30 8 1 5 6
M  V30 9 1 5 36
M  V30 10 2 6 7
M  V30 11 1 6 37
M  V30 12 1 7 8
M  V30 13 1 8 9
M  V30 14 1 8 38
M  V30 15 1 8 39
M  V30 16 1 9 10
M  V30 17 2 9 20
M  V30 18 1 10 11
M  V30 19 2 10 12
M  V30 20 2 11 17
M  V30 21 1 11 22
M  V30 22 1 12 13
M  V30 23 1 12 40
M  V30 24 2 13 14
M  V30 25 1 13 41
M  V30 26 1 14 15
M  V30 27 1 14 17
M  V30 28 1 15 16
M  V30 29 1 16 42
M  V30 30 1 16 43
M  V30 31 1 16 44
M  V30 32 1 17 18
M  V30 33 1 18 19
M  V30 34 1 19 45
M  V30 35 1 19 46
M  V30 36 1 19 47
M  V30 37 1 20 21
M  V30 38 1 20 26
M  V30 39 2 21 22
M  V30 40 1 21 23
M  V30 41 1 22 48
M  V30 42 1 23 24
M  V30 43 1 23 49
M  V30 44 1 23 50
M  V30 45 1 24 25
M  V30 46 1 24 51
M  V30 47 1 24 52
M  V30 48 2 25 26
M  V30 49 1 25 30
M  V30 50 1 26 27
M  V30 51 2 27 28
M  V30 52 1 27 53
M  V30 53 1 28 29
M  V30 54 1 28 33
M  V30 55 2 29 30
M  V30 56 1 29 31
M  V30 57 1 30 54
M  V30 58 1 31 32
M  V30 59 1 32 33
M  V30 60 1 32 55
M  V30 61 1 32 56
M  V30 END BOND
M  V30 END CTAB
M  END
> <s_m_entry_id>
1673

> <s_m_entry_name>
result.2075

> <s_m_Source_Path>
D:\OneDrive - zju.edu.cn\DOC\A-Finished\LCK_VS\Planet\LCK-8617

> <s_m_Source_File>
glide-dock_SP_top1262_2_pv.maegz

> <i_m_Source_File_Index>
1673

> <PLANET_affinity>
7.776

> <i_lp_mmshare_version>
54117

> <i_f3d_flags>
0

> <s_epik_input>
RmMxW2NIXVtjSF1bY0hdW2NIXWMxW0NIMl1jMmMoW24rXTNbY0hdYyhjMjQpYyhPW0NIM10pYyhbY0hdW2NIXTQpT1tDSDNdKWM1YyhbQ0gyXVtDSDJdMylbY0hdYzZjKFtjSF01KU9bQ0gyXU82

> <s_epik_cmdline>
J2VwaWtfcHl0aG9uJywgJy1waCcsICc3LjAnLCAnLXRuJywgJzgnLCAnLW1hJywgJzUwMCcsICctaW1hZScsICc8aW5maWxlLm1hZT4nLCAnLW9tYWUnLCAnPG91dGZpbGUubWFlPic=

> <r_epik_Ionization_Penalty>
  0.0000

> <r_epik_Ionization_Penalty_Charging>
  0.0000

> <r_epik_Ionization_Penalty_Neutral>
  0.0000

> <r_epik_State_Penalty>
  0.0000

> <r_epik_Charging_Adjusted_Penalty>
0

> <i_epik_Tot_Q>
1

> <i_epik_Tot_abs_Q>
1

> <s_epik_Chemistry_Notes>
This compound contains an acetal/aminal-like group ( X-CH(R)-Y where X, Y are N, S, or O) that may be acid/base labile, releasing an aldehyde.

> <s_lp_Force_Field>
S-OPLS

> <r_lp_Energy>
85.2129

> <b_lp_Chiralities_Consistent>
1

> <s_lp_Variant>
COC1=C(OC)C2=C[N+]3=C(C(C(CC3)=C4)=CC5=C4OCO5)C(CC6=CC=CC=C6F)=C2C=C1.[Br-]-1

> <s_i_glide_gridfile>
glide-grid_1

> <i_i_glide_lignum>
1538

> <i_i_glide_rotatable_bonds>
4

> <r_i_docking_score>
-7.15583555091456

> <r_i_glide_ligand_efficiency>
-0.216843501542865

> <r_i_glide_ligand_efficiency_sa>
-0.695532974624598

> <r_i_glide_ligand_efficiency_ln>
-1.59142077558984

> <r_i_glide_gscore>
-7.15583555091456

> <r_i_glide_lipo>
-3.46248798635198

> <r_i_glide_hbond>
-0.32

> <r_i_glide_metal>
0

> <r_i_glide_rewards>
-1.09179683683507

> <r_i_glide_evdw>
-39.8892250061035

> <r_i_glide_ecoul>
-3.26376557350159

> <r_i_glide_erotb>
0.202475358602913

> <r_i_glide_esite>
0

> <r_i_glide_emodel>
-62.8333542255129

> <r_i_glide_energy>
-43.1529905796051

> <r_i_glide_einternal>
2.27233362197876

> <i_i_glide_confnum>
3

> <i_i_glide_posenum>
78

> <r_i_glide_eff_state_penalty>
0

> <r_lp_tautomer_probability>
1

> <s_m_subgroup_title>
glide-dock_SP_top1262_2_pv

> <s_m_subgroupid>
glide-dock_SP_top1262_2_pv

> <b_m_subgroup_collapsed>
0

$$$$
OC1=CC=C2C(OC(C(C=C3)=C2C(C=CC(C(ON(C(CC4)=O)C4=O)=O)=C5)=C5C(O)=O)=CC3=O)=C1...
                    3D
 Schrodinger Suite 2021-3.
  0  0  0     0  0            999 V3000
M  V30 BEGIN CTAB
M  V30 COUNTS 49 53 0 0 0
M  V30 BEGIN ATOM
M  V30 1 C  28.7983 40.6591 85.7476 0
M  V30 2 C  29.9846 41.2136 85.2648 0
M  V30 3 C  30.6781 40.5931 84.2266 0
M  V30 4 O  31.8197 41.1566 83.7300 0
M  V30 5 C  30.1875 39.4216 83.6593 0
M  V30 6 C  28.9872 38.8870 84.1200 0
M  V30 7 C  28.2806 39.4854 85.1813 0
M  V30 8 O  28.5133 37.7714 83.4580 0
M  V30 9 C  27.2804 37.3027 83.7820 0
M  V30 10 C  26.4941 37.8311 84.8986 0
M  V30 11 C  25.2195 37.1581 85.1420 0
M  V30 12 C  24.7777 36.1524 84.3505 0
M  V30 13 C  25.5320 35.6438 83.1855 0
M  V30 14 O  25.1177 34.7568 82.4445 0
M  V30 15 C  26.8376 36.2975 82.9935 0
M  V30 16 C  26.9832 38.8857 85.6038 0
M  V30 17 C  26.2276 39.4791 86.7508 0
M  V30 18 C  26.7286 39.2734 88.0423 0
M  V30 19 C  26.0730 39.7857 89.1610 0
M  V30 20 C  24.8849 40.5163 89.0285 0
M  V30 21 C  24.3960 40.7469 87.7344 0
M  V30 22 C  25.0536 40.2565 86.5929 0
M  V30 23 C  24.4944 40.5924 85.2436 0
M  V30 24 O  23.3739 40.1130 84.9524 0 CHG=-1
M  V30 25 O  25.1922 41.3186 84.4987 0
M  V30 26 C  24.1196 41.0315 90.2194 0
M  V30 27 O  23.0426 41.6298 90.1097 0
M  V30 28 O  24.7482 40.7573 91.4316 0
M  V30 29 N  24.1091 41.3487 92.5501 0
M  V30 30 C  24.4597 42.5775 93.0009 0
M  V30 31 O  25.3491 43.3191 92.5857 0
M  V30 32 C  23.5269 42.8944 94.1563 0
M  V30 33 C  22.8224 41.5932 94.4438 0
M  V30 34 C  23.2630 40.6485 93.3461 0
M  V30 35 O  22.8833 39.4834 93.2420 0
M  V30 36 H  28.2740 41.1687 86.5426 0
M  V30 37 H  30.3620 42.1312 85.6931 0
M  V30 38 H  31.7170 42.1234 83.6437 0
M  V30 39 H  30.7184 38.9501 82.8454 0
M  V30 40 H  24.5965 37.4706 85.9686 0
M  V30 41 H  23.8223 35.7061 84.5811 0
M  V30 42 H  27.4728 35.9578 82.1874 0
M  V30 43 H  27.6348 38.7011 88.1863 0
M  V30 44 H  26.4870 39.5787 90.1365 0
M  V30 45 H  23.4887 41.3235 87.6033 0
M  V30 46 H  24.0833 43.2673 95.0143 0
M  V30 47 H  22.8323 43.6619 93.8098 0
M  V30 48 H  23.1495 41.1577 95.3894 0
M  V30 49 H  21.7363 41.6858 94.4366 0
M  V30 END ATOM
M  V30 BEGIN BOND
M  V30 1 2 1 2
M  V30 2 1 1 7
M  V30 3 1 1 36
M  V30 4 1 2 3
M  V30 5 1 2 37
M  V30 6 1 3 4
M  V30 7 2 3 5
M  V30 8 1 4 38
M  V30 9 1 5 6
M  V30 10 1 5 39
M  V30 11 2 6 7
M  V30 12 1 6 8
M  V30 13 1 7 16
M  V30 14 1 8 9
M  V30 15 1 9 10
M  V30 16 2 9 15
M  V30 17 1 10 11
M  V30 18 2 10 16
M  V30 19 2 11 12
M  V30 20 1 11 40
M  V30 21 1 12 13
M  V30 22 1 12 41
M  V30 23 2 13 14
M  V30 24 1 13 15
M  V30 25 1 15 42
M  V30 26 1 16 17
M  V30 27 2 17 18
M  V30 28 1 17 22
M  V30 29 1 18 19
M  V30 30 1 18 43
M  V30 31 2 19 20
M  V30 32 1 19 44
M  V30 33 1 20 21
M  V30 34 1 20 26
M  V30 35 2 21 22
M  V30 36 1 21 45
M  V30 37 1 22 23
M  V30 38 1 23 24
M  V30 39 2 23 25
M  V30 40 2 26 27
M  V30 41 1 26 28
M  V30 42 1 28 29
M  V30 43 1 29 30
M  V30 44 1 29 34
M  V30 45 2 30 31
M  V30 46 1 30 32
M  V30 47 1 32 33
M  V30 48 1 32 46
M  V30 49 1 32 47
M  V30 50 1 33 34
M  V30 51 1 33 48
M  V30 52 1 33 49
M  V30 53 2 34 35
M  V30 END BOND
M  V30 END CTAB
M  END
> <s_m_entry_id>
1675

> <s_m_entry_name>
result.5956

> <s_m_Source_Path>
D:\OneDrive - zju.edu.cn\DOC\A-Finished\LCK_VS\Planet\LCK-8617

> <s_m_Source_File>
glide-dock_SP_top1262_2_pv.maegz

> <i_m_Source_File_Index>
1675

> <PLANET_affinity>
7.234

> <i_lp_mmshare_version>
54117

> <i_f3d_flags>
0

> <s_epik_input>
W2NIXTFbY0hdYyg9TylbY0hdYyhvMiljMWMoYyhjMjMpW2NIXVtjSF1jKFtPSF0pW2NIXTMpLWM0W2NIXVtjSF1jKFtjSF1jNEMoPU8pW09IXSlDKD1PKU9ONUMoPU8pW0NIMl1bQ0gyXUM1PU8=

> <s_epik_cmdline>
J2VwaWtfcHl0aG9uJywgJy1waCcsICc3LjAnLCAnLXRuJywgJzgnLCAnLW1hJywgJzUwMCcsICctaW1hZScsICc8aW5maWxlLm1hZT4nLCAnLW9tYWUnLCAnPG91dGZpbGUubWFlPic=

> <r_epik_Ionization_Penalty>
  0.0438

> <r_epik_Ionization_Penalty_Charging>
  0.0002

> <r_epik_Ionization_Penalty_Neutral>
  0.0435

> <r_epik_State_Penalty>
  0.0368

> <r_epik_Charging_Adjusted_Penalty>
0.0370588

> <i_epik_Tot_Q>
-1

> <i_epik_Tot_abs_Q>
1

> <s_epik_Chemistry_Notes>
This compound has a N-S or N-O group and may undergo hydrolysis at high or low pH.

> <s_lp_Force_Field>
S-OPLS

> <r_lp_Energy>
65.1831

> <b_lp_Chiralities_Consistent>
1

> <s_lp_Variant>
OC1=CC=C2C(OC(C(C=C3)=C2C(C=CC(C(ON(C(CC4)=O)C4=O)=O)=C5)=C5C(O)=O)=CC3=O)=C1...-1

> <s_i_glide_gridfile>
glide-grid_1

> <i_i_glide_lignum>
2339

> <i_i_glide_rotatable_bonds>
6

> <r_i_docking_score>
-7.15534382505468

> <r_i_glide_ligand_efficiency>
-0.204438395001562

> <r_i_glide_ligand_efficiency_sa>
-0.668731545606114

> <r_i_glide_ligand_efficiency_ln>
-1.57075677389955

> <r_i_glide_gscore>
-7.19214382505468

> <r_i_glide_lipo>
-2.51998374212864

> <r_i_glide_hbond>
-0.456

> <r_i_glide_metal>
0

> <r_i_glide_rewards>
-1.406836793251

> <r_i_glide_evdw>
-42.0473213195801

> <r_i_glide_ecoul>
-7.12939310073853

> <r_i_glide_erotb>
0.36245174141474

> <r_i_glide_esite>
0

> <r_i_glide_emodel>
-65.1166119229816

> <r_i_glide_energy>
-49.1767144203186

> <r_i_glide_einternal>
10.0371179580688

> <i_i_glide_confnum>
48

> <i_i_glide_posenum>
262

> <r_i_glide_eff_state_penalty>
0.0368

> <r_lp_tautomer_probability>
0.9999

> <s_m_subgroup_title>
glide-dock_SP_top1262_2_pv

> <s_m_subgroupid>
glide-dock_SP_top1262_2_pv

> <b_m_subgroup_collapsed>
0

$$$$
OC(C(F)(F)F)=O.O=C(N)C1=C(C2=CC(S(=O)(C3=CC=CC(C(N(C)C)=O)=C3)=O)=CC(C)=C2N=C...
                    3D
 Schrodinger Suite 2021-3.
  0  0  0     0  0            999 V3000
M  V30 BEGIN CTAB
M  V30 COUNTS 63 66 0 0 0
M  V30 BEGIN ATOM
M  V30 1 C  20.6008 34.3949 87.9431 0
M  V30 2 O  19.4001 35.1567 88.0671 0
M  V30 3 C  19.3287 36.4045 87.4899 0
M  V30 4 C  20.4152 37.0342 86.8804 0
M  V30 5 C  18.0937 37.0510 87.4898 0
M  V30 6 C  17.9362 38.2782 86.8480 0
M  V30 7 C  19.0188 38.8803 86.2084 0
M  V30 8 C  20.2625 38.2507 86.2084 0
M  V30 9 N  21.3371 38.8410 85.5291 0
M  V30 10 C  22.6587 38.3551 85.5154 0
M  V30 11 C  23.0391 37.1770 84.8107 0
M  V30 12 C  22.1016 36.3470 83.9363 0
M  V30 13 O  20.8801 36.3568 84.0435 0
M  V30 14 N  22.6620 35.5566 83.0147 0
M  V30 15 C  24.3695 36.7646 84.9368 0
M  V30 16 N  25.3101 37.4082 85.6500 0
M  V30 17 C  24.9734 38.5393 86.3221 0
M  V30 18 C  23.6443 39.0601 86.2908 0
M  V30 19 C  25.9702 39.2010 87.0960 0
M  V30 20 C  27.3734 38.6329 87.1688 0
M  V30 21 C  25.6568 40.3466 87.8140 0
M  V30 22 C  24.3637 40.8505 87.8214 0
M  V30 23 C  23.3645 40.2293 87.0678 0
M  V30 24 S  24.0216 42.3118 88.8040 0
M  V30 25 O  22.5965 42.6269 88.6488 0
M  V30 26 O  25.0589 43.2958 88.4740 0
M  V30 27 C  24.2879 41.8382 90.5169 0
M  V30 28 C  25.5848 41.6850 91.0173 0
M  V30 29 C  25.7852 41.3277 92.3511 0
M  V30 30 C  24.6918 41.1353 93.1956 0
M  V30 31 C  23.3876 41.2979 92.7092 0
M  V30 32 C  23.1963 41.6559 91.3686 0
M  V30 33 C  22.1860 41.1400 93.6053 0
M  V30 34 O  21.3652 42.0592 93.6435 0
M  V30 35 N  21.9982 39.9548 94.2460 0
M  V30 36 C  22.8005 38.7557 94.0008 0
M  V30 37 C  20.7187 39.6521 94.8829 0
M  V30 38 H  20.4830 33.4384 88.4434 0
M  V30 39 H  20.8387 34.1927 86.8972 0
M  V30 40 H  21.4547 34.8832 88.4127 0
M  V30 41 H  21.3782 36.5534 86.8802 0
M  V30 42 H  17.2466 36.5858 87.9681 0
M  V30 43 H  16.9679 38.7565 86.8424 0
M  V30 44 H  18.8812 39.8272 85.7073 0
M  V30 45 H  21.2550 39.8446 85.4600 0
M  V30 46 H  23.6426 35.6242 82.8001 0
M  V30 47 H  22.0770 34.9364 82.4672 0
M  V30 48 H  24.7381 35.8669 84.4605 0
M  V30 49 H  27.8593 38.6748 86.1931 0
M  V30 50 H  28.0043 39.1477 87.8957 0
M  V30 51 H  27.2830 37.5903 87.4680 0
M  V30 52 H  26.4289 40.8441 88.3812 0
M  V30 53 H  22.3646 40.6390 87.0779 0
M  V30 54 H  26.4403 41.8582 90.3813 0
M  V30 55 H  26.7883 41.2157 92.7352 0
M  V30 56 H  24.8673 40.8817 94.2313 0
M  V30 57 H  22.1949 41.8012 90.9859 0
M  V30 58 H  22.8836 38.5653 92.9308 0
M  V30 59 H  22.3619 37.8642 94.4510 0
M  V30 60 H  23.7919 38.8678 94.4304 0
M  V30 61 H  20.1945 40.5383 95.2433 0
M  V30 62 H  20.0830 39.1553 94.1563 0
M  V30 63 H  20.8549 38.9736 95.7245 0
M  V30 END ATOM
M  V30 BEGIN BOND
M  V30 1 1 1 2
M  V30 2 1 1 38
M  V30 3 1 1 39
M  V30 4 1 1 40
M  V30 5 1 2 3
M  V30 6 2 3 4
M  V30 7 1 3 5
M  V30 8 1 4 8
M  V30 9 1 4 41
M  V30 10 2 5 6
M  V30 11 1 5 42
M  V30 12 1 6 7
M  V30 13 1 6 43
M  V30 14 2 7 8
M  V30 15 1 7 44
M  V30 16 1 8 9
M  V30 17 1 9 10
M  V30 18 1 9 45
M  V30 19 2 10 11
M  V30 20 1 10 18
M  V30 21 1 11 12
M  V30 22 1 11 15
M  V30 23 2 12 13
M  V30 24 1 12 14
M  V30 25 1 14 46
M  V30 26 1 14 47
M  V30 27 2 15 16
M  V30 28 1 15 48
M  V30 29 1 16 17
M  V30 30 2 17 18
M  V30 31 1 17 19
M  V30 32 1 18 23
M  V30 33 1 19 20
M  V30 34 2 19 21
M  V30 35 1 20 49
M  V30 36 1 20 50
M  V30 37 1 20 51
M  V30 38 1 21 22
M  V30 39 1 21 52
M  V30 40 2 22 23
M  V30 41 1 22 24
M  V30 42 1 23 53
M  V30 43 2 24 25
M  V30 44 2 24 26
M  V30 45 1 24 27
M  V30 46 2 27 28
M  V30 47 1 27 32
M  V30 48 1 28 29
M  V30 49 1 28 54
M  V30 50 2 29 30
M  V30 51 1 29 55
M  V30 52 1 30 31
M  V30 53 1 30 56
M  V30 54 2 31 32
M  V30 55 1 31 33
M  V30 56 1 32 57
M  V30 57 2 33 34
M  V30 58 1 33 35
M  V30 59 1 35 36
M  V30 60 1 35 37
M  V30 61 1 36 58
M  V30 62 1 36 59
M  V30 63 1 36 60
M  V30 64 1 37 61
M  V30 65 1 37 62
M  V30 66 1 37 63
M  V30 END BOND
M  V30 END CTAB
M  END
> <s_m_entry_id>
1684

> <s_m_entry_name>
result.8165

> <s_m_Source_Path>
D:\OneDrive - zju.edu.cn\DOC\A-Finished\LCK_VS\Planet\LCK-8617

> <s_m_Source_File>
glide-dock_SP_top1262_2_pv.maegz

> <i_m_Source_File_Index>
1684

> <PLANET_affinity>
9.316

> <i_lp_mmshare_version>
54117

> <i_f3d_flags>
0

> <s_epik_input>
W0NIM11PYzFbY0hdYyhbY0hdW2NIXVtjSF0xKVtOSF1jKGMoW2NIXW4yKUMoPU8pW05IMl0pYyhjMjMpW2NIXWMoW2NIXWMzW0NIM10pUyg9TykoPU8pYzRbY0hdW2NIXVtjSF1jKFtjSF00KUMoPU8pTihbQ0gzXSlbQ0gzXQ==

> <s_epik_cmdline>
J2VwaWtfcHl0aG9uJywgJy1waCcsICc3LjAnLCAnLXRuJywgJzgnLCAnLW1hJywgJzUwMCcsICctaW1hZScsICc8aW5maWxlLm1hZT4nLCAnLW9tYWUnLCAnPG91dGZpbGUubWFlPic=

> <r_epik_Ionization_Penalty>
  0.0013

> <r_epik_Ionization_Penalty_Charging>
  0.0000

> <r_epik_Ionization_Penalty_Neutral>
  0.0013

> <r_epik_State_Penalty>
  0.0000

> <r_epik_Charging_Adjusted_Penalty>
0

> <i_epik_Tot_Q>
0

> <i_epik_Tot_abs_Q>
0

> <s_lp_Force_Field>
S-OPLS

> <r_lp_Energy>
64.3832

> <b_lp_Chiralities_Consistent>
1

> <s_lp_Variant>
OC(C(F)(F)F)=O.O=C(N)C1=C(C2=CC(S(=O)(C3=CC=CC(C(N(C)C)=O)=C3)=O)=CC(C)=C2N=C...-1

> <s_i_glide_gridfile>
glide-grid_1

> <i_i_glide_lignum>
410

> <i_i_glide_rotatable_bonds>
8

> <r_i_docking_score>
-7.15181532517558

> <r_i_glide_ligand_efficiency>
-0.193292306085827

> <r_i_glide_ligand_efficiency_sa>
-0.644092845318974

> <r_i_glide_ligand_efficiency_ln>
-1.55106108169127

> <r_i_glide_gscore>
-7.15181532517558

> <r_i_glide_lipo>
-3.03764579573732

> <r_i_glide_hbond>
-0.566997499119225

> <r_i_glide_metal>
0

> <r_i_glide_rewards>
-0.437033725180345

> <r_i_glide_evdw>
-52.0651473999023

> <r_i_glide_ecoul>
-5.78603172302246

> <r_i_glide_erotb>
0.381870876314721

> <r_i_glide_esite>
-0.0208470530049309

> <r_i_glide_emodel>
-79.1233982454807

> <r_i_glide_energy>
-57.8511791229248

> <r_i_glide_einternal>
7.61519336700439

> <i_i_glide_confnum>
51

> <i_i_glide_posenum>
209

> <r_i_glide_eff_state_penalty>
0

> <r_lp_tautomer_probability>
1

> <s_m_subgroup_title>
glide-dock_SP_top1262_2_pv

> <s_m_subgroupid>
glide-dock_SP_top1262_2_pv

> <b_m_subgroup_collapsed>
0

$$$$
NC([C@@H]1[C@@H](N(CCC[C@H]2NC3=CC(C(F)(F)F)=CC(Cl)=C3)C2=O)CN(C4=NC=NC(N)=C4...
                    3D
 Schrodinger Suite 2021-3.
  0  0  0     0  0            999 V3000
M  V30 BEGIN CTAB
M  V30 COUNTS 60 63 0 0 0
M  V30 BEGIN ATOM
M  V30 1 F  24.6253 39.9880 85.3493 0
M  V30 2 C  23.6066 40.7230 84.8431 0
M  V30 3 C  23.8603 42.0113 84.3676 0
M  V30 4 N  25.1284 42.5809 84.4431 0
M  V30 5 N  22.9043 42.7565 83.7731 0
M  V30 6 C  21.6830 42.2048 83.6447 0
M  V30 7 N  21.3307 40.9858 84.0906 0
M  V30 8 C  22.2854 40.2382 84.7122 0
M  V30 9 N  21.8785 38.9671 85.1104 0
M  V30 10 C  20.4867 38.4863 84.9496 0
M  V30 11 C  20.4222 36.9594 84.7722 0
M  V30 12 C  22.4190 38.3104 86.3116 0
M  V30 13 C  22.6731 36.8080 85.9991 0 CFG=1
M  V30 14 C  21.2829 36.1510 85.7763 0 CFG=1
M  V30 15 C  20.5119 35.9450 87.1089 0
M  V30 16 O  19.8920 36.8584 87.6434 0
M  V30 17 N  20.4954 34.7254 87.6430 0
M  V30 18 N  23.7367 36.5597 84.9673 0
M  V30 19 C  23.3676 35.9562 83.6565 0
M  V30 20 C  24.5472 35.5476 82.7589 0
M  V30 21 C  25.6439 36.6011 82.7670 0
M  V30 22 C  26.1326 36.8087 84.2054 0 CFG=2
M  V30 23 C  25.0265 36.9076 85.3056 0
M  V30 24 O  25.3183 37.3064 86.4399 0
M  V30 25 N  26.9328 38.0349 84.3076 0
M  V30 26 C  28.3040 38.1183 84.0244 0
M  V30 27 C  29.0402 37.0675 83.4635 0
M  V30 28 C  30.4144 37.2035 83.2236 0
M  V30 29 C  31.2186 36.0734 82.5883 0
M  V30 30 F  32.0198 36.5529 81.6364 0
M  V30 31 F  31.9657 35.4861 83.5219 0
M  V30 32 F  30.4193 35.1575 82.0436 0
M  V30 33 C  31.0508 38.4007 83.5669 0
M  V30 34 C  30.3251 39.4475 84.1299 0
M  V30 35 Cl 31.1254 40.9082 84.5735 0
M  V30 36 C  28.9555 39.3098 84.3455 0
M  V30 37 H  25.8783 42.0980 84.9143 0
M  V30 38 H  25.2597 43.4829 84.0006 0
M  V30 39 H  20.9038 42.8068 83.2001 0
M  V30 40 H  19.8647 38.8281 85.7792 0
M  V30 41 H  20.0486 38.9070 84.0446 0
M  V30 42 H  19.3889 36.6082 84.7882 0
M  V30 43 H  20.6509 36.6640 83.7485 0
M  V30 44 H  23.3359 38.7734 86.6587 0
M  V30 45 H  21.7211 38.4508 87.1375 0
M  V30 46 H  23.0857 36.3331 86.8821 0
M  V30 47 H  21.4111 35.1531 85.4137 0
M  V30 48 H  20.8930 33.9284 87.1629 0
M  V30 49 H  19.9652 34.5759 88.4878 0
M  V30 50 H  22.6359 35.1561 83.7520 0
M  V30 51 H  22.8226 36.7545 83.1576 0
M  V30 52 H  24.9501 34.5947 83.1048 0
M  V30 53 H  24.1877 35.3667 81.7452 0
M  V30 54 H  26.4668 36.2817 82.1257 0
M  V30 55 H  25.2859 37.5363 82.3387 0
M  V30 56 H  26.7375 35.9569 84.4969 0
M  V30 57 H  26.4422 38.8743 84.5848 0
M  V30 58 H  28.5520 36.1405 83.2057 0
M  V30 59 H  32.1120 38.5193 83.3984 0
M  V30 60 H  28.4074 40.1280 84.7891 0
M  V30 END ATOM
M  V30 BEGIN BOND
M  V30 1 1 1 2
M  V30 2 2 2 3
M  V30 3 1 2 8
M  V30 4 1 3 4
M  V30 5 1 3 5
M  V30 6 1 4 37
M  V30 7 1 4 38
M  V30 8 2 5 6
M  V30 9 1 6 7
M  V30 10 1 6 39
M  V30 11 2 7 8
M  V30 12 1 8 9
M  V30 13 1 9 10
M  V30 14 1 9 12
M  V30 15 1 10 11
M  V30 16 1 10 40
M  V30 17 1 10 41
M  V30 18 1 11 14
M  V30 19 1 11 42
M  V30 20 1 11 43
M  V30 21 1 12 13
M  V30 22 1 12 44
M  V30 23 1 12 45
M  V30 24 1 13 14
M  V30 25 1 13 18
M  V30 26 1 13 46
M  V30 27 1 14 15
M  V30 28 1 14 47
M  V30 29 2 15 16
M  V30 30 1 15 17
M  V30 31 1 17 48
M  V30 32 1 17 49
M  V30 33 1 18 19
M  V30 34 1 18 23
M  V30 35 1 19 20
M  V30 36 1 19 50
M  V30 37 1 19 51
M  V30 38 1 20 21
M  V30 39 1 20 52
M  V30 40 1 20 53
M  V30 41 1 21 22
M  V30 42 1 21 54
M  V30 43 1 21 55
M  V30 44 1 22 23
M  V30 45 1 22 25
M  V30 46 1 22 56
M  V30 47 2 23 24
M  V30 48 1 25 26
M  V30 49 1 25 57
M  V30 50 2 26 27
M  V30 51 1 26 36
M  V30 52 1 27 28
M  V30 53 1 27 58
M  V30 54 1 28 29
M  V30 55 2 28 33
M  V30 56 1 29 30
M  V30 57 1 29 31
M  V30 58 1 29 32
M  V30 59 1 33 34
M  V30 60 1 33 59
M  V30 61 1 34 35
M  V30 62 2 34 36
M  V30 63 1 36 60
M  V30 END BOND
M  V30 END CTAB
M  END
> <s_m_entry_id>
1690

> <s_m_entry_name>
result.1167

> <s_m_Source_Path>
D:\OneDrive - zju.edu.cn\DOC\A-Finished\LCK_VS\Planet\LCK-8617

> <s_m_Source_File>
glide-dock_SP_top1262_2_pv.maegz

> <i_m_Source_File_Index>
1690

> <PLANET_affinity>
7.221

> <i_lp_mmshare_version>
54117

> <i_f3d_flags>
0

> <s_epik_input>
RmMxYyhbTkgyXSluW2NIXW5jMU4yW0NIMl1bQ0gyXVtDQEhdKEMoPU8pW05IMl0pW0NASF0oW0NIMl0yKU4zW0NIMl1bQ0gyXVtDSDJdW0NASF0oQzM9TylbTkhdYzRbY0hdYyhDKEYpKEYpRilbY0hdYyhDbClbY0hdNA==

> <s_epik_cmdline>
J2VwaWtfcHl0aG9uJywgJy1waCcsICc3LjAnLCAnLXRuJywgJzgnLCAnLW1hJywgJzUwMCcsICctaW1hZScsICc8aW5maWxlLm1hZT4nLCAnLW9tYWUnLCAnPG91dGZpbGUubWFlPic=

> <r_epik_Ionization_Penalty>
  0.0074

> <r_epik_Ionization_Penalty_Charging>
  0.0000

> <r_epik_Ionization_Penalty_Neutral>
  0.0074

> <r_epik_State_Penalty>
  0.0055

> <r_epik_Charging_Adjusted_Penalty>
0.00546763

> <i_epik_Tot_Q>
0

> <i_epik_Tot_abs_Q>
0

> <s_lp_Force_Field>
S-OPLS

> <r_lp_Energy>
72.6275

> <b_lp_Chiralities_Consistent>
1

> <s_lp_Variant>
NC([C@@H]1[C@@H](N(CCC[C@H]2NC3=CC(C(F)(F)F)=CC(Cl)=C3)C2=O)CN(C4=NC=NC(N)=C4...-1

> <s_i_glide_gridfile>
glide-grid_1

> <i_i_glide_lignum>
2356

> <i_i_glide_rotatable_bonds>
6

> <r_i_docking_score>
-7.14921267762441

> <r_i_glide_ligand_efficiency>
-0.198589241045122

> <r_i_glide_ligand_efficiency_sa>
-0.655727225560923

> <r_i_glide_ligand_efficiency_ln>
-1.55976505685226

> <r_i_glide_gscore>
-7.15471267762441

> <r_i_glide_lipo>
-2.87916221221444

> <r_i_glide_hbond>
-0.328586274587708

> <r_i_glide_metal>
0

> <r_i_glide_rewards>
-1.58470870493575

> <r_i_glide_evdw>
-47.6004791259766

> <r_i_glide_ecoul>
-1.49053514003754

> <r_i_glide_erotb>
0.293584706012145

> <r_i_glide_esite>
-0.052235964594196

> <r_i_glide_emodel>
-65.149791045143

> <r_i_glide_energy>
-49.0910142660141

> <r_i_glide_einternal>
10.9529752731323

> <i_i_glide_confnum>
131

> <i_i_glide_posenum>
342

> <r_i_glide_eff_state_penalty>
0.0055

> <r_lp_tautomer_probability>
1

> <s_m_subgroup_title>
glide-dock_SP_top1262_2_pv

> <s_m_subgroupid>
glide-dock_SP_top1262_2_pv

> <b_m_subgroup_collapsed>
0

$$$$
O=C(NOC)NC1=CC=C(N2N=C(C(C(N3C4=NN=C(OC)C=C4)=O)=C2CN(C)C)N(CC5=C(F)C=CC=C5F)...
                    3D
 Schrodinger Suite 2021-3.
  0  0  0     0  0            999 V3000
M  V30 BEGIN CTAB
M  V30 COUNTS 72 76 0 0 0
M  V30 BEGIN ATOM
M  V30 1 C  33.4427 33.8840 83.0441 0
M  V30 2 O  33.1125 34.8520 82.0496 0
M  V30 3 N  31.7374 35.1141 82.0434 0
M  V30 4 C  31.2139 36.0084 82.8947 0
M  V30 5 O  31.8781 36.5842 83.7572 0
M  V30 6 N  29.8857 36.1527 82.6988 0
M  V30 7 C  28.9659 36.9408 83.4246 0
M  V30 8 C  29.3288 37.8259 84.4471 0
M  V30 9 C  28.3637 38.5445 85.1351 0
M  V30 10 C  27.0069 38.4462 84.8066 0
M  V30 11 C  26.6496 37.5654 83.7657 0
M  V30 12 C  27.6152 36.8131 83.0944 0
M  V30 13 N  26.0032 39.1750 85.5369 0
M  V30 14 N  24.7169 38.7733 85.4238 0
M  V30 15 C  26.0999 40.2877 86.3827 0
M  V30 16 C  27.3553 41.0946 86.7210 0
M  V30 17 N  27.9131 41.8178 85.4694 0 CHG=1
M  V30 18 C  26.9355 42.8703 84.8944 0
M  V30 19 C  29.2934 42.4485 85.7630 0
M  V30 20 C  24.8079 40.4768 86.8726 0
M  V30 21 C  24.0126 39.5402 86.2199 0
M  V30 22 C  24.2607 41.4375 87.8122 0
M  V30 23 O  24.8954 42.3595 88.3338 0
M  V30 24 N  22.9178 41.1829 88.0539 0
M  V30 25 C  22.2729 42.0912 88.9283 0
M  V30 26 N  22.3475 41.8834 90.2753 0
M  V30 27 N  21.6976 42.7047 91.1179 0
M  V30 28 C  20.9642 43.7452 90.6382 0
M  V30 29 O  20.3265 44.4718 91.6228 0
M  V30 30 C  19.4829 45.5520 91.2319 0
M  V30 31 C  20.8792 44.0047 89.2616 0
M  V30 32 C  21.5496 43.1582 88.3889 0
M  V30 33 C  22.0893 40.2095 87.5064 0
M  V30 34 O  20.9406 39.9954 87.9172 0
M  V30 35 N  22.6392 39.5099 86.4562 0
M  V30 36 C  21.7535 38.6931 85.5936 0
M  V30 37 C  21.1541 37.4625 86.2728 0
M  V30 38 C  21.9594 36.3559 86.5527 0
M  V30 39 F  23.2520 36.3456 86.1558 0
M  V30 40 C  21.4367 35.2624 87.2435 0
M  V30 41 C  20.1003 35.2637 87.6436 0
M  V30 42 C  19.2856 36.3569 87.3466 0
M  V30 43 C  19.8039 37.4443 86.6470 0
M  V30 44 F  18.9906 38.4833 86.3458 0
M  V30 45 H  34.5033 33.6459 82.9709 0
M  V30 46 H  32.8873 32.9536 82.9066 0
M  V30 47 H  33.2568 34.2552 84.0542 0
M  V30 48 H  31.2990 34.7980 81.1826 0
M  V30 49 H  29.4857 35.5924 81.9625 0
M  V30 50 H  30.3484 37.9656 84.7618 0
M  V30 51 H  28.7365 39.1356 85.9456 0
M  V30 52 H  25.6184 37.4375 83.4681 0
M  V30 53 H  27.3077 36.1380 82.3074 0
M  V30 54 H  27.1414 41.9199 87.4014 0
M  V30 55 H  28.1475 40.5376 87.2159 0
M  V30 56 H  26.7220 43.5993 85.6792 0
M  V30 57 H  27.4236 43.3461 84.0432 0
M  V30 58 H  26.0266 42.3565 84.5760 0
M  V30 59 H  29.1661 43.2040 86.5418 0
M  V30 60 H  29.9638 41.6521 86.0898 0
M  V30 61 H  29.6698 42.8964 84.8436 0
M  V30 62 H  19.0511 46.0147 92.1193 0
M  V30 63 H  20.0396 46.3229 90.6959 0
M  V30 64 H  18.6578 45.2047 90.6068 0
M  V30 65 H  20.2926 44.8133 88.8461 0
M  V30 66 H  21.4759 43.3197 87.3211 0
M  V30 67 H  20.9651 39.3289 85.1879 0
M  V30 68 H  22.2980 38.3448 84.7149 0
M  V30 69 H  22.0619 34.4092 87.4595 0
M  V30 70 H  19.6962 34.4126 88.1720 0
M  V30 71 H  18.2470 36.3555 87.6429 0
M  V30 72 H  28.0577 41.1121 84.7567 0
M  V30 END ATOM
M  V30 BEGIN BOND
M  V30 1 1 1 2
M  V30 2 1 1 45
M  V30 3 1 1 46
M  V30 4 1 1 47
M  V30 5 1 2 3
M  V30 6 1 3 4
M  V30 7 1 3 48
M  V30 8 2 4 5
M  V30 9 1 4 6
M  V30 10 1 6 7
M  V30 11 1 6 49
M  V30 12 2 7 8
M  V30 13 1 7 12
M  V30 14 1 8 9
M  V30 15 1 8 50
M  V30 16 2 9 10
M  V30 17 1 9 51
M  V30 18 1 10 11
M  V30 19 1 10 13
M  V30 20 2 11 12
M  V30 21 1 11 52
M  V30 22 1 12 53
M  V30 23 1 13 14
M  V30 24 1 13 15
M  V30 25 2 14 21
M  V30 26 1 15 16
M  V30 27 2 15 20
M  V30 28 1 16 17
M  V30 29 1 16 54
M  V30 30 1 16 55
M  V30 31 1 17 18
M  V30 32 1 17 19
M  V30 33 1 17 72
M  V30 34 1 18 56
M  V30 35 1 18 57
M  V30 36 1 18 58
M  V30 37 1 19 59
M  V30 38 1 19 60
M  V30 39 1 19 61
M  V30 40 1 20 21
M  V30 41 1 20 22
M  V30 42 1 21 35
M  V30 43 2 22 23
M  V30 44 1 22 24
M  V30 45 1 24 25
M  V30 46 1 24 33
M  V30 47 2 25 26
M  V30 48 1 25 32
M  V30 49 1 26 27
M  V30 50 2 27 28
M  V30 51 1 28 29
M  V30 52 1 28 31
M  V30 53 1 29 30
M  V30 54 1 30 62
M  V30 55 1 30 63
M  V30 56 1 30 64
M  V30 57 2 31 32
M  V30 58 1 31 65
M  V30 59 1 32 66
M  V30 60 2 33 34
M  V30 61 1 33 35
M  V30 62 1 35 36
M  V30 63 1 36 37
M  V30 64 1 36 67
M  V30 65 1 36 68
M  V30 66 2 37 38
M  V30 67 1 37 43
M  V30 68 1 38 39
M  V30 69 1 38 40
M  V30 70 2 40 41
M  V30 71 1 40 69
M  V30 72 1 41 42
M  V30 73 1 41 70
M  V30 74 2 42 43
M  V30 75 1 42 71
M  V30 76 1 43 44
M  V30 END BOND
M  V30 END CTAB
M  END
> <s_m_entry_id>
1693

> <s_m_entry_name>
result.2063

> <s_m_Source_Path>
D:\OneDrive - zju.edu.cn\DOC\A-Finished\LCK_VS\Planet\LCK-8617

> <s_m_Source_File>
glide-dock_SP_top1262_2_pv.maegz

> <i_m_Source_File_Index>
1693

> <PLANET_affinity>
9.193

> <i_lp_mmshare_version>
54117

> <i_f3d_flags>
0

> <s_epik_input>
W0NIM11PW05IXUMoPU8pW05IXWMxW2NIXVtjSF1jKFtjSF1bY0hdMSktbihjMltDSDJdTihbQ0gzXSlbQ0gzXSluYyhjMjMpbihbQ0gyXWM0YyhGKVtjSF1bY0hdW2NIXWM0RiljKD1PKW4oYzM9TyktYzVubmMoT1tDSDNdKVtjSF1bY0hdNQ==

> <s_epik_cmdline>
J2VwaWtfcHl0aG9uJywgJy1waCcsICc3LjAnLCAnLXRuJywgJzgnLCAnLW1hJywgJzUwMCcsICctaW1hZScsICc8aW5maWxlLm1hZT4nLCAnLW9tYWUnLCAnPG91dGZpbGUubWFlPic=

> <r_epik_Ionization_Penalty>
  0.0175

> <r_epik_Ionization_Penalty_Charging>
  0.0174

> <r_epik_Ionization_Penalty_Neutral>
  0.0001

> <r_epik_State_Penalty>
  0.0138

> <r_epik_Charging_Adjusted_Penalty>
0.0312427

> <i_epik_Tot_Q>
1

> <i_epik_Tot_abs_Q>
1

> <s_epik_Chemistry_Notes>
This compound has a N-S or N-O group and may undergo hydrolysis at high or low pH.

> <s_lp_Force_Field>
S-OPLS

> <r_lp_Energy>
88.1145

> <b_lp_Chiralities_Consistent>
1

> <s_lp_Variant>
O=C(NOC)NC1=CC=C(N2N=C(C(C(N3C4=NN=C(OC)C=C4)=O)=C2CN(C)C)N(CC5=C(F)C=CC=C5F)...-1

> <s_i_glide_gridfile>
glide-grid_1

> <i_i_glide_lignum>
447

> <i_i_glide_rotatable_bonds>
11

> <r_i_docking_score>
-7.1483729819867

> <r_i_glide_ligand_efficiency>
-0.16246302231788

> <r_i_glide_ligand_efficiency_sa>
-0.573551059668492

> <r_i_glide_ligand_efficiency_ln>
-1.49416589411657

> <r_i_glide_gscore>
-7.1621729819867

> <r_i_glide_lipo>
-2.60344895918546

> <r_i_glide_hbond>
-0.32

> <r_i_glide_metal>
0

> <r_i_glide_rewards>
-0.484221696771646

> <r_i_glide_evdw>
-45.8804321289062

> <r_i_glide_ecoul>
-11.1363878250122

> <r_i_glide_erotb>
0.331146418213354

> <r_i_glide_esite>
-0.121168964045807

> <r_i_glide_emodel>
-77.8720018826893

> <r_i_glide_energy>
-57.0168199539185

> <r_i_glide_einternal>
12.4781379699707

> <i_i_glide_confnum>
65

> <i_i_glide_posenum>
246

> <r_i_glide_eff_state_penalty>
0.0138

> <s_m_subgroup_title>
glide-dock_SP_top1262_2_pv

> <s_m_subgroupid>
glide-dock_SP_top1262_2_pv

> <b_m_subgroup_collapsed>
0

$$$$
O=C(C1=CC(C2=CC=CC=C2N3CCN(CCN4C=C(C)C5=C4C=CC=C5)CC3)=CC(C#N)=C1)NCCCN6CCCC6
                    3D
 Schrodinger Suite 2021-3.
  0  0  0     0  0            999 V3000
M  V30 BEGIN CTAB
M  V30 COUNTS 86 91 0 0 0
M  V30 BEGIN ATOM
M  V30 1 C  21.8754 46.7187 86.9957 0
M  V30 2 C  22.1867 48.2053 86.8652 0
M  V30 3 C  23.3326 48.2871 85.8550 0
M  V30 4 C  23.9357 46.8763 85.7457 0
M  V30 5 N  23.2470 46.0385 86.8436 0 CHG=1
M  V30 6 C  23.1120 44.5204 86.5602 0
M  V30 7 C  24.4832 43.8162 86.5402 0
M  V30 8 C  25.1741 43.8091 85.1616 0
M  V30 9 N  26.4224 43.0521 85.1738 0
M  V30 10 C  26.5739 41.8136 84.6777 0
M  V30 11 O  25.6826 41.2280 84.0637 0
M  V30 12 C  27.9005 41.1367 84.9277 0
M  V30 13 C  28.2546 40.0050 84.1814 0
M  V30 14 C  29.3887 39.2421 84.4813 0
M  V30 15 C  30.2277 39.6976 85.5115 0
M  V30 16 C  29.9464 40.8747 86.2089 0
M  V30 17 C  30.8654 41.3788 87.2205 0
M  V30 18 N  31.5946 41.7827 88.0226 0
M  V30 19 C  28.7747 41.5763 85.9333 0
M  V30 20 C  29.7300 37.9990 83.7072 0
M  V30 21 C  31.0805 37.8004 83.3745 0
M  V30 22 C  31.5014 36.6971 82.6405 0
M  V30 23 C  30.5700 35.7682 82.2041 0
M  V30 24 C  29.2245 35.9514 82.4897 0
M  V30 25 C  28.7797 37.0423 83.2484 0
M  V30 26 N  27.4120 37.0948 83.4984 0
M  V30 27 C  26.8018 37.2746 84.8213 0
M  V30 28 C  25.6297 36.2948 85.0457 0
M  V30 29 N  24.5932 36.5244 84.0421 0
M  V30 30 C  25.1610 36.2003 82.7295 0
M  V30 31 C  26.3950 37.0818 82.4290 0
M  V30 32 C  23.3917 35.7407 84.3391 0
M  V30 33 C  22.0964 36.4312 83.8768 0
M  V30 34 N  21.6886 37.5664 84.7216 0
M  V30 35 C  22.5052 38.4424 85.4092 0
M  V30 36 C  21.7786 39.3712 86.1211 0
M  V30 37 C  22.2984 40.4667 87.0223 0
M  V30 38 C  20.3822 37.9873 84.8942 0
M  V30 39 C  20.4078 39.0814 85.8175 0
M  V30 40 C  19.1843 37.5059 84.3503 0
M  V30 41 C  18.0057 38.1187 84.7643 0
M  V30 42 C  18.0023 39.1423 85.6988 0
M  V30 43 C  19.1901 39.6434 86.2258 0
M  V30 44 H  21.4042 46.4038 87.9295 0
M  V30 45 H  21.2769 46.3574 86.1605 0
M  V30 46 H  22.4866 48.6109 87.8342 0
M  V30 47 H  21.3073 48.7640 86.5374 0
M  V30 48 H  22.9597 48.6045 84.8768 0
M  V30 49 H  24.0850 49.0151 86.1669 0
M  V30 50 H  23.6830 46.4107 84.7885 0
M  V30 51 H  25.0128 46.8311 85.9152 0
M  V30 52 H  22.5136 44.1586 87.3970 0
M  V30 53 H  22.5382 44.3631 85.6442 0
M  V30 54 H  25.1449 44.2574 87.2883 0
M  V30 55 H  24.3331 42.7831 86.8552 0
M  V30 56 H  24.4703 43.4196 84.4237 0
M  V30 57 H  25.3910 44.8156 84.8160 0
M  V30 58 H  27.2416 43.5303 85.5175 0
M  V30 59 H  27.6080 39.6848 83.3769 0
M  V30 60 H  31.1182 39.1363 85.7640 0
M  V30 61 H  28.5447 42.4572 86.5140 0
M  V30 62 H  31.8295 38.5187 83.6762 0
M  V30 63 H  32.5486 36.5655 82.4086 0
M  V30 64 H  30.8916 34.9025 81.6443 0
M  V30 65 H  28.5232 35.2096 82.1350 0
M  V30 66 H  27.5529 37.1562 85.6014 0
M  V30 67 H  26.4351 38.2966 84.9197 0
M  V30 68 H  25.9639 35.2589 84.9729 0
M  V30 69 H  25.2292 36.4364 86.0510 0
M  V30 70 H  24.4114 36.3562 81.9528 0
M  V30 71 H  25.4422 35.1478 82.6776 0
M  V30 72 H  26.0730 38.1094 82.2571 0
M  V30 73 H  26.8392 36.7561 81.4888 0
M  V30 74 H  23.4596 34.7567 83.8728 0
M  V30 75 H  23.2948 35.5568 85.4097 0
M  V30 76 H  22.1559 36.7566 82.8436 0
M  V30 77 H  21.3026 35.6895 83.9032 0
M  V30 78 H  23.5773 38.3385 85.3598 0
M  V30 79 H  21.9482 40.3428 88.0486 0
M  V30 80 H  23.3885 40.4846 87.0546 0
M  V30 81 H  21.9685 41.4506 86.6871 0
M  V30 82 H  19.1595 36.6910 83.6443 0
M  V30 83 H  17.0601 37.7870 84.3658 0
M  V30 84 H  17.0573 39.5574 86.0168 0
M  V30 85 H  19.1617 40.4617 86.9294 0
M  V30 86 H  23.7484 46.1488 87.7145 0
M  V30 END ATOM
M  V30 BEGIN BOND
M  V30 1 1 1 2
M  V30 2 1 1 5
M  V30 3 1 1 44
M  V30 4 1 1 45
M  V30 5 1 2 3
M  V30 6 1 2 46
M  V30 7 1 2 47
M  V30 8 1 3 4
M  V30 9 1 3 48
M  V30 10 1 3 49
M  V30 11 1 4 5
M  V30 12 1 4 50
M  V30 13 1 4 51
M  V30 14 1 5 6
M  V30 15 1 5 86
M  V30 16 1 6 7
M  V30 17 1 6 52
M  V30 18 1 6 53
M  V30 19 1 7 8
M  V30 20 1 7 54
M  V30 21 1 7 55
M  V30 22 1 8 9
M  V30 23 1 8 56
M  V30 24 1 8 57
M  V30 25 1 9 10
M  V30 26 1 9 58
M  V30 27 2 10 11
M  V30 28 1 10 12
M  V30 29 2 12 13
M  V30 30 1 12 19
M  V30 31 1 13 14
M  V30 32 1 13 59
M  V30 33 2 14 15
M  V30 34 1 14 20
M  V30 35 1 15 16
M  V30 36 1 15 60
M  V30 37 1 16 17
M  V30 38 2 16 19
M  V30 39 3 17 18
M  V30 40 1 19 61
M  V30 41 2 20 21
M  V30 42 1 20 25
M  V30 43 1 21 22
M  V30 44 1 21 62
M  V30 45 2 22 23
M  V30 46 1 22 63
M  V30 47 1 23 24
M  V30 48 1 23 64
M  V30 49 2 24 25
M  V30 50 1 24 65
M  V30 51 1 25 26
M  V30 52 1 26 27
M  V30 53 1 26 31
M  V30 54 1 27 28
M  V30 55 1 27 66
M  V30 56 1 27 67
M  V30 57 1 28 29
M  V30 58 1 28 68
M  V30 59 1 28 69
M  V30 60 1 29 30
M  V30 61 1 29 32
M  V30 62 1 30 31
M  V30 63 1 30 70
M  V30 64 1 30 71
M  V30 65 1 31 72
M  V30 66 1 31 73
M  V30 67 1 32 33
M  V30 68 1 32 74
M  V30 69 1 32 75
M  V30 70 1 33 34
M  V30 71 1 33 76
M  V30 72 1 33 77
M  V30 73 1 34 35
M  V30 74 1 34 38
M  V30 75 2 35 36
M  V30 76 1 35 78
M  V30 77 1 36 37
M  V30 78 1 36 39
M  V30 79 1 37 79
M  V30 80 1 37 80
M  V30 81 1 37 81
M  V30 82 2 38 39
M  V30 83 1 38 40
M  V30 84 1 39 43
M  V30 85 2 40 41
M  V30 86 1 40 82
M  V30 87 1 41 42
M  V30 88 1 41 83
M  V30 89 2 42 43
M  V30 90 1 42 84
M  V30 91 1 43 85
M  V30 END BOND
M  V30 END CTAB
M  END
> <s_m_entry_id>
1696

> <s_m_entry_name>
result.4187

> <s_m_Source_Path>
D:\OneDrive - zju.edu.cn\DOC\A-Finished\LCK_VS\Planet\LCK-8617

> <s_m_Source_File>
glide-dock_SP_top1262_2_pv.maegz

> <i_m_Source_File_Index>
1696

> <PLANET_affinity>
7.106

> <i_lp_mmshare_version>
54117

> <i_f3d_flags>
0

> <s_epik_input>
W0NIMl0xW0NIMl1bQ0gyXVtDSDJdTjFbQ0gyXVtDSDJdW0NIMl1bTkhdQyg9TyljMltjSF1jKFtjSF1jKEMjTilbY0hdMiktYzNbY0hdW2NIXVtjSF1bY0hdYzNONFtDSDJdW0NIMl1OKFtDSDJdW0NIMl00KVtDSDJdW0NIMl1uNVtjSF1jKFtDSDNdKWMoYzU2KVtjSF1bY0hdW2NIXVtjSF02

> <s_epik_cmdline>
J2VwaWtfcHl0aG9uJywgJy1waCcsICc3LjAnLCAnLXRuJywgJzgnLCAnLW1hJywgJzUwMCcsICctaW1hZScsICc8aW5maWxlLm1hZT4nLCAnLW9tYWUnLCAnPG91dGZpbGUubWFlPic=

> <r_epik_Ionization_Penalty>
  0.0705

> <r_epik_Ionization_Penalty_Charging>
  0.0007

> <r_epik_Ionization_Penalty_Neutral>
  0.0698

> <r_epik_State_Penalty>
  0.0607

> <r_epik_Charging_Adjusted_Penalty>
0.0614335

> <i_epik_Tot_Q>
1

> <i_epik_Tot_abs_Q>
1

> <s_lp_Force_Field>
S-OPLS

> <r_lp_Energy>
84.8009

> <b_lp_Chiralities_Consistent>
1

> <s_lp_Variant>
O=C(C1=CC(C2=CC=CC=C2N3CCN(CCN4C=C(C)C5=C4C=CC=C5)CC3)=CC(C#N)=C1)NCCCN6CCCC6-1

> <s_i_glide_gridfile>
glide-grid_1

> <i_i_glide_lignum>
2530

> <i_i_glide_rotatable_bonds>
11

> <r_i_docking_score>
-7.14786404868977

> <r_i_glide_ligand_efficiency>
-0.166229396481157

> <r_i_glide_ligand_efficiency_sa>
-0.582367744481209

> <r_i_glide_ligand_efficiency_ln>
-1.50127360224357

> <r_i_glide_gscore>
-7.20856404868977

> <r_i_glide_lipo>
-3.12913341768617

> <r_i_glide_hbond>
0

> <r_i_glide_metal>
0

> <r_i_glide_rewards>
-0.878639368310273

> <r_i_glide_evdw>
-48.6564521789551

> <r_i_glide_ecoul>
-8.2269983291626

> <r_i_glide_erotb>
0.534267389594178

> <r_i_glide_esite>
-0.0681862939653581

> <r_i_glide_emodel>
-81.2045236360209

> <r_i_glide_energy>
-56.8834505081177

> <r_i_glide_einternal>
6.50853300094604

> <i_i_glide_confnum>
132

> <i_i_glide_posenum>
307

> <r_i_glide_eff_state_penalty>
0.0607

> <s_m_subgroup_title>
glide-dock_SP_top1262_2_pv

> <s_m_subgroupid>
glide-dock_SP_top1262_2_pv

> <b_m_subgroup_collapsed>
0

$$$$
CS(=O)(NC1=CC=CC=C1NC2=NC(NC3=CC=C(N4CCOCC4)C=C3OC)=NC=C2F)=O
                    3D
 Schrodinger Suite 2021-3.
  0  0  0     0  0            999 V3000
M  V30 BEGIN CTAB
M  V30 COUNTS 59 62 0 0 0
M  V30 BEGIN ATOM
M  V30 1 C  19.4911 41.4286 87.4989 0
M  V30 2 S  21.2855 40.9282 87.6474 0
M  V30 3 O  21.4948 40.3492 88.9773 0
M  V30 4 O  22.1251 42.0256 87.1636 0
M  V30 5 N  21.4417 39.6356 86.4510 0
M  V30 6 C  21.1267 38.2883 86.6939 0
M  V30 7 C  19.9679 37.9384 87.4014 0
M  V30 8 C  19.6451 36.6054 87.6437 0
M  V30 9 C  20.4854 35.5987 87.1873 0
M  V30 10 C  21.6166 35.9359 86.4510 0
M  V30 11 C  21.9439 37.2658 86.1739 0
M  V30 12 N  23.0888 37.5555 85.4015 0
M  V30 13 C  23.7405 36.7615 84.4437 0
M  V30 14 N  25.0815 36.9420 84.3165 0
M  V30 15 C  25.7160 36.2660 83.3177 0
M  V30 16 N  25.1126 35.4133 82.4526 0
M  V30 17 C  23.7702 35.2741 82.5733 0
M  V30 18 C  23.0314 35.9518 83.5418 0
M  V30 19 F  21.6828 35.8567 83.5534 0
M  V30 20 N  27.0927 36.4169 83.1119 0
M  V30 21 C  28.0866 37.2558 83.6506 0
M  V30 22 C  27.7866 38.3693 84.4443 0
M  V30 23 C  28.8016 39.1708 84.9570 0
M  V30 24 C  30.1458 38.8895 84.6890 0
M  V30 25 C  30.4408 37.7867 83.8790 0
M  V30 26 C  29.4291 36.9637 83.3535 0
M  V30 27 O  29.6841 35.8608 82.5536 0
M  V30 28 C  31.0272 35.5076 82.2435 0
M  V30 29 N  31.1787 39.6685 85.2029 0
M  V30 30 C  30.9627 40.5790 86.3414 0
M  V30 31 C  32.2854 40.9646 87.0367 0
M  V30 32 O  33.1726 41.5577 86.0973 0
M  V30 33 C  33.4636 40.6858 85.0122 0
M  V30 34 C  32.1635 40.2716 84.2862 0
M  V30 35 H  19.3488 42.3587 88.0428 0
M  V30 36 H  19.2832 41.5567 86.4435 0
M  V30 37 H  18.8226 40.6819 87.9127 0
M  V30 38 H  22.0379 39.8448 85.6654 0
M  V30 39 H  19.2952 38.6856 87.7767 0
M  V30 40 H  18.7518 36.3543 88.1974 0
M  V30 41 H  20.2543 34.5606 87.3813 0
M  V30 42 H  22.2497 35.1565 86.0785 0
M  V30 43 H  23.5834 38.3952 85.6600 0
M  V30 44 H  23.2829 34.6433 81.8472 0
M  V30 45 H  27.4588 35.7973 82.4005 0
M  V30 46 H  26.7718 38.6498 84.6701 0
M  V30 47 H  28.5268 40.0222 85.5616 0
M  V30 48 H  31.4771 37.5652 83.6790 0
M  V30 49 H  31.0293 34.5994 81.6434 0
M  V30 50 H  31.5223 36.2877 81.6634 0
M  V30 51 H  31.6074 35.3008 83.1442 0
M  V30 52 H  30.3243 40.0899 87.0778 0
M  V30 53 H  30.4318 41.4725 86.0070 0
M  V30 54 H  32.0904 41.6829 87.8329 0
M  V30 55 H  32.7469 40.0946 87.5084 0
M  V30 56 H  34.1243 41.2066 84.3191 0
M  V30 57 H  34.0102 39.8088 85.3648 0
M  V30 58 H  31.7151 41.1323 83.7855 0
M  V30 59 H  32.4321 39.5670 83.4992 0
M  V30 END ATOM
M  V30 BEGIN BOND
M  V30 1 1 1 2
M  V30 2 1 1 35
M  V30 3 1 1 36
M  V30 4 1 1 37
M  V30 5 2 2 3
M  V30 6 2 2 4
M  V30 7 1 2 5
M  V30 8 1 5 6
M  V30 9 1 5 38
M  V30 10 2 6 7
M  V30 11 1 6 11
M  V30 12 1 7 8
M  V30 13 1 7 39
M  V30 14 2 8 9
M  V30 15 1 8 40
M  V30 16 1 9 10
M  V30 17 1 9 41
M  V30 18 2 10 11
M  V30 19 1 10 42
M  V30 20 1 11 12
M  V30 21 1 12 13
M  V30 22 1 12 43
M  V30 23 2 13 14
M  V30 24 1 13 18
M  V30 25 1 14 15
M  V30 26 2 15 16
M  V30 27 1 15 20
M  V30 28 1 16 17
M  V30 29 2 17 18
M  V30 30 1 17 44
M  V30 31 1 18 19
M  V30 32 1 20 21
M  V30 33 1 20 45
M  V30 34 2 21 22
M  V30 35 1 21 26
M  V30 36 1 22 23
M  V30 37 1 22 46
M  V30 38 2 23 24
M  V30 39 1 23 47
M  V30 40 1 24 25
M  V30 41 1 24 29
M  V30 42 2 25 26
M  V30 43 1 25 48
M  V30 44 1 26 27
M  V30 45 1 27 28
M  V30 46 1 28 49
M  V30 47 1 28 50
M  V30 48 1 28 51
M  V30 49 1 29 30
M  V30 50 1 29 34
M  V30 51 1 30 31
M  V30 52 1 30 52
M  V30 53 1 30 53
M  V30 54 1 31 32
M  V30 55 1 31 54
M  V30 56 1 31 55
M  V30 57 1 32 33
M  V30 58 1 33 34
M  V30 59 1 33 56
M  V30 60 1 33 57
M  V30 61 1 34 58
M  V30 62 1 34 59
M  V30 END BOND
M  V30 END CTAB
M  END
> <s_m_entry_id>
1697

> <s_m_entry_name>
result.7959

> <s_m_Source_Path>
D:\OneDrive - zju.edu.cn\DOC\A-Finished\LCK_VS\Planet\LCK-8617

> <s_m_Source_File>
glide-dock_SP_top1262_2_pv.maegz

> <i_m_Source_File_Index>
1697

> <PLANET_affinity>
7.939

> <i_lp_mmshare_version>
54117

> <i_f3d_flags>
0

> <s_epik_input>
W0NIM11TKD1PKSg9TylbTkhdYzFbY0hdW2NIXVtjSF1bY0hdYzFbTkhdYzJuYyhuW2NIXWMyRilbTkhdYzNbY0hdW2NIXWMoW2NIXWMzT1tDSDNdKU40W0NIMl1bQ0gyXU9bQ0gyXVtDSDJdNA==

> <s_epik_cmdline>
J2VwaWtfcHl0aG9uJywgJy1waCcsICc3LjAnLCAnLXRuJywgJzgnLCAnLW1hJywgJzUwMCcsICctaW1hZScsICc8aW5maWxlLm1hZT4nLCAnLW9tYWUnLCAnPG91dGZpbGUubWFlPic=

> <r_epik_Ionization_Penalty>
  0.0022

> <r_epik_Ionization_Penalty_Charging>
  0.0000

> <r_epik_Ionization_Penalty_Neutral>
  0.0022

> <r_epik_State_Penalty>
  0.0000

> <r_epik_Charging_Adjusted_Penalty>
0

> <i_epik_Tot_Q>
0

> <i_epik_Tot_abs_Q>
0

> <s_lp_Force_Field>
S-OPLS

> <r_lp_Energy>
51.5392

> <b_lp_Chiralities_Consistent>
1

> <s_lp_Variant>
CS(=O)(NC1=CC=CC=C1NC2=NC(NC3=CC=C(N4CCOCC4)C=C3OC)=NC=C2F)=O-1

> <s_i_glide_gridfile>
glide-grid_1

> <i_i_glide_lignum>
1360

> <i_i_glide_rotatable_bonds>
8

> <r_i_docking_score>
-7.14765174461129

> <r_i_glide_ligand_efficiency>
-0.210225051312097

> <r_i_glide_ligand_efficiency_sa>
-0.681047556354293

> <r_i_glide_ligand_efficiency_ln>
-1.5791167552252

> <r_i_glide_gscore>
-7.14765174461129

> <r_i_glide_lipo>
-3.01612519907561

> <r_i_glide_hbond>
-0.171145611523652

> <r_i_glide_metal>
0

> <r_i_glide_rewards>
-1.35930213740746

> <r_i_glide_evdw>
-45.0067520141602

> <r_i_glide_ecoul>
-4.93733739852905

> <r_i_glide_erotb>
0.511266764411639

> <r_i_glide_esite>
-0.121407350528837

> <r_i_glide_emodel>
-69.9086792839614

> <r_i_glide_energy>
-49.9440894126892

> <r_i_glide_einternal>
3.62028574943542

> <i_i_glide_confnum>
241

> <i_i_glide_posenum>
330

> <r_i_glide_eff_state_penalty>
0

> <r_lp_tautomer_probability>
1

> <s_m_subgroup_title>
glide-dock_SP_top1262_2_pv

> <s_m_subgroupid>
glide-dock_SP_top1262_2_pv

> <b_m_subgroup_collapsed>
0

$$$$
OC1=CC=CC=C1C2=NN=C(N)C(N3CCNCC3)=C2.[H]Cl.[H]Cl
                    3D
 Schrodinger Suite 2021-3.
  0  0  0     0  0            999 V3000
M  V30 BEGIN CTAB
M  V30 COUNTS 38 40 0 0 0
M  V30 BEGIN ATOM
M  V30 1 O  25.6829 35.1709 82.0435 0
M  V30 2 C  25.4746 35.9360 83.1601 0
M  V30 3 C  24.1730 35.9567 83.6617 0
M  V30 4 C  23.8611 36.7159 84.7847 0
M  V30 5 C  24.8568 37.4557 85.4117 0
M  V30 6 C  26.1601 37.4314 84.9174 0
M  V30 7 C  26.5108 36.6734 83.7847 0
M  V30 8 C  27.9505 36.6452 83.3323 0
M  V30 9 N  28.3609 35.5567 82.6268 0
M  V30 10 N  29.6221 35.4359 82.1995 0
M  V30 11 C  30.5407 36.3804 82.5013 0
M  V30 12 N  31.8260 36.0908 82.0434 0
M  V30 13 C  30.2099 37.5364 83.2434 0
M  V30 14 C  28.8725 37.6518 83.6502 0
M  V30 15 N  31.1058 38.5552 83.5664 0
M  V30 16 C  31.1743 39.1655 84.9052 0
M  V30 17 C  31.2255 40.7059 84.8739 0
M  V30 18 N  32.4296 41.1567 84.0310 0 CHG=1
M  V30 19 C  32.3298 40.5534 82.6199 0
M  V30 20 C  32.2091 39.0161 82.7061 0
M  V30 21 H  26.5749 35.2688 81.6920 0
M  V30 22 H  23.3986 35.3808 83.1744 0
M  V30 23 H  22.8516 36.7266 85.1684 0
M  V30 24 H  24.6222 38.0426 86.2887 0
M  V30 25 H  26.9027 37.9966 85.4593 0
M  V30 26 H  32.5927 36.7042 82.2686 0
M  V30 27 H  31.9497 35.2818 81.4460 0
M  V30 28 H  28.5572 38.5319 84.1886 0
M  V30 29 H  30.3327 38.8452 85.5214 0
M  V30 30 H  32.0467 38.7618 85.4237 0
M  V30 31 H  31.3699 41.1398 85.8646 0
M  V30 32 H  30.3391 41.1509 84.4159 0
M  V30 33 H  33.2987 40.8938 84.4741 0
M  V30 34 H  33.2286 40.8732 82.0899 0
M  V30 35 H  31.4598 41.0163 82.1456 0
M  V30 36 H  33.1447 38.5762 83.0548 0
M  V30 37 H  32.0629 38.6416 81.6915 0
M  V30 38 H  32.4020 42.1697 83.9519 0
M  V30 END ATOM
M  V30 BEGIN BOND
M  V30 1 1 1 2
M  V30 2 1 1 21
M  V30 3 2 2 3
M  V30 4 1 2 7
M  V30 5 1 3 4
M  V30 6 1 3 22
M  V30 7 2 4 5
M  V30 8 1 4 23
M  V30 9 1 5 6
M  V30 10 1 5 24
M  V30 11 2 6 7
M  V30 12 1 6 25
M  V30 13 1 7 8
M  V30 14 2 8 9
M  V30 15 1 8 14
M  V30 16 1 9 10
M  V30 17 2 10 11
M  V30 18 1 11 12
M  V30 19 1 11 13
M  V30 20 1 12 26
M  V30 21 1 12 27
M  V30 22 2 13 14
M  V30 23 1 13 15
M  V30 24 1 14 28
M  V30 25 1 15 16
M  V30 26 1 15 20
M  V30 27 1 16 17
M  V30 28 1 16 29
M  V30 29 1 16 30
M  V30 30 1 17 18
M  V30 31 1 17 31
M  V30 32 1 17 32
M  V30 33 1 18 19
M  V30 34 1 18 33
M  V30 35 1 18 38
M  V30 36 1 19 20
M  V30 37 1 19 34
M  V30 38 1 19 35
M  V30 39 1 20 36
M  V30 40 1 20 37
M  V30 END BOND
M  V30 END CTAB
M  END
> <s_m_entry_id>
1706

> <s_m_entry_name>
result.7402

> <s_m_Source_Path>
D:\OneDrive - zju.edu.cn\DOC\A-Finished\LCK_VS\Planet\LCK-8617

> <s_m_Source_File>
glide-dock_SP_top1262_2_pv.maegz

> <i_m_Source_File_Index>
1706

> <PLANET_affinity>
7.201

> <i_lp_mmshare_version>
54117

> <i_f3d_flags>
0

> <s_epik_input>
W09IXWMxW2NIXVtjSF1bY0hdW2NIXWMxLWMybm5jKFtOSDJdKWMoW2NIXTIpTjNbQ0gyXVtDSDJdW05IXVtDSDJdW0NIMl0z

> <s_epik_cmdline>
J2VwaWtfcHl0aG9uJywgJy1waCcsICc3LjAnLCAnLXRuJywgJzgnLCAnLW1hJywgJzUwMCcsICctaW1hZScsICc8aW5maWxlLm1hZT4nLCAnLW9tYWUnLCAnPG91dGZpbGUubWFlPic=

> <r_epik_Ionization_Penalty>
  0.0125

> <r_epik_Ionization_Penalty_Charging>
  0.0086

> <r_epik_Ionization_Penalty_Neutral>
  0.0039

> <r_epik_State_Penalty>
  0.0065

> <r_epik_Charging_Adjusted_Penalty>
0.0150378

> <i_epik_Tot_Q>
1

> <i_epik_Tot_abs_Q>
1

> <s_lp_Force_Field>
S-OPLS

> <r_lp_Energy>
52.9713

> <b_lp_Chiralities_Consistent>
1

> <s_lp_Variant>
OC1=CC=CC=C1C2=NN=C(N)C(N3CCNCC3)=C2.[H]Cl.[H]Cl-1

> <s_i_glide_gridfile>
glide-grid_1

> <i_i_glide_lignum>
2382

> <i_i_glide_rotatable_bonds>
3

> <r_i_docking_score>
-7.14350351484122

> <r_i_glide_ligand_efficiency>
-0.357175175742061

> <r_i_glide_ligand_efficiency_sa>
-0.969522588276488

> <r_i_glide_ligand_efficiency_ln>
-1.78778332125026

> <r_i_glide_gscore>
-7.15000351484122

> <r_i_glide_lipo>
-2.18138133944332

> <r_i_glide_hbond>
-0.638453958437471

> <r_i_glide_metal>
0

> <r_i_glide_rewards>
-2.22136583377471

> <r_i_glide_evdw>
-27.2254943847656

> <r_i_glide_ecoul>
-7.86154079437256

> <r_i_glide_erotb>
0.483264237405518

> <r_i_glide_esite>
-0.0515607821970712

> <r_i_glide_emodel>
-55.7367736458758

> <r_i_glide_energy>
-35.0870351791382

> <r_i_glide_einternal>
0.947787761688232

> <i_i_glide_confnum>
15

> <i_i_glide_posenum>
365

> <r_i_glide_eff_state_penalty>
0.0065

> <r_lp_tautomer_probability>
0.999978

> <s_m_subgroup_title>
glide-dock_SP_top1262_2_pv

> <s_m_subgroupid>
glide-dock_SP_top1262_2_pv

> <b_m_subgroup_collapsed>
0

$$$$
O=C(N1)N(CC2=CC=C(F)C(C(N3CCN(C4=NC=CC=N4)CC3)=O)=C2)C5=C(C(F)=CC=C5)C1=O
                    3D
 Schrodinger Suite 2021-3.
  0  0  0     0  0            999 V3000
M  V30 BEGIN CTAB
M  V30 COUNTS 55 59 0 0 0
M  V30 BEGIN ATOM
M  V30 1 C  24.5452 37.8626 86.0450 0
M  V30 2 C  23.1864 37.5728 86.1436 0
M  V30 3 C  22.5775 36.7554 85.1987 0
M  V30 4 C  23.3206 36.2188 84.1516 0
M  V30 5 F  22.6889 35.4169 83.2623 0
M  V30 6 C  24.6862 36.5307 84.0361 0
M  V30 7 C  25.3070 37.3945 84.9610 0
M  V30 8 C  25.4959 35.9731 82.8837 0
M  V30 9 O  25.1179 35.1570 82.0495 0
M  V30 10 N  26.7459 36.4832 82.8241 0
M  V30 11 C  27.3952 37.3577 83.6346 0
M  V30 12 O  28.5295 37.7205 83.3255 0
M  V30 13 N  26.6793 37.7373 84.7454 0
M  V30 14 C  27.3564 38.6798 85.6703 0
M  V30 15 C  27.2003 40.1625 85.3274 0
M  V30 16 C  28.2566 40.8531 84.7270 0
M  V30 17 C  28.1556 42.2236 84.4864 0
M  V30 18 C  26.9948 42.9195 84.8311 0
M  V30 19 F  26.9238 44.2461 84.5684 0
M  V30 20 C  25.9269 42.2422 85.4378 0
M  V30 21 C  26.0551 40.8726 85.6974 0
M  V30 22 C  24.6672 42.9660 85.8553 0
M  V30 23 O  24.7801 43.9413 86.6011 0
M  V30 24 N  23.4611 42.4579 85.4693 0
M  V30 25 C  23.3189 41.6006 84.2745 0
M  V30 26 C  21.8739 41.0460 84.1418 0
M  V30 27 N  21.1884 40.7319 85.4120 0
M  V30 28 C  21.2976 41.8372 86.3917 0
M  V30 29 C  22.2229 43.0230 86.0228 0
M  V30 30 C  20.1691 39.7768 85.5114 0
M  V30 31 N  19.4839 39.6941 86.6897 0
M  V30 32 C  18.4850 38.7771 86.7650 0
M  V30 33 C  18.1667 37.9299 85.7042 0
M  V30 34 C  18.9417 38.0483 84.5508 0
M  V30 35 N  19.9474 38.9545 84.4437 0
M  V30 36 H  24.9771 38.4537 86.8336 0
M  V30 37 H  22.6072 37.9687 86.9653 0
M  V30 38 H  21.5259 36.5267 85.2849 0
M  V30 39 H  27.2842 36.1680 82.0303 0
M  V30 40 H  28.4260 38.4578 85.6954 0
M  V30 41 H  27.0445 38.5057 86.6990 0
M  V30 42 H  29.1663 40.3334 84.4599 0
M  V30 43 H  28.9895 42.7531 84.0459 0
M  V30 44 H  25.2486 40.3786 86.2097 0
M  V30 45 H  23.9214 40.7050 84.4117 0
M  V30 46 H  23.5941 42.1198 83.3544 0
M  V30 47 H  21.8735 40.1997 83.4569 0
M  V30 48 H  21.2631 41.8294 83.6897 0
M  V30 49 H  20.3120 42.2166 86.6602 0
M  V30 50 H  21.7433 41.3728 87.2723 0
M  V30 51 H  21.7376 43.6173 85.2485 0
M  V30 52 H  22.3698 43.6867 86.8763 0
M  V30 53 H  17.9149 38.7556 87.6836 0
M  V30 54 H  17.3568 37.2182 85.7755 0
M  V30 55 H  18.7597 37.4207 83.6901 0
M  V30 END ATOM
M  V30 BEGIN BOND
M  V30 1 1 1 2
M  V30 2 2 1 7
M  V30 3 1 1 36
M  V30 4 2 2 3
M  V30 5 1 2 37
M  V30 6 1 3 4
M  V30 7 1 3 38
M  V30 8 1 4 5
M  V30 9 2 4 6
M  V30 10 1 6 7
M  V30 11 1 6 8
M  V30 12 1 7 13
M  V30 13 2 8 9
M  V30 14 1 8 10
M  V30 15 1 10 11
M  V30 16 1 10 39
M  V30 17 2 11 12
M  V30 18 1 11 13
M  V30 19 1 13 14
M  V30 20 1 14 15
M  V30 21 1 14 40
M  V30 22 1 14 41
M  V30 23 2 15 16
M  V30 24 1 15 21
M  V30 25 1 16 17
M  V30 26 1 16 42
M  V30 27 2 17 18
M  V30 28 1 17 43
M  V30 29 1 18 19
M  V30 30 1 18 20
M  V30 31 2 20 21
M  V30 32 1 20 22
M  V30 33 1 21 44
M  V30 34 2 22 23
M  V30 35 1 22 24
M  V30 36 1 24 25
M  V30 37 1 24 29
M  V30 38 1 25 26
M  V30 39 1 25 45
M  V30 40 1 25 46
M  V30 41 1 26 27
M  V30 42 1 26 47
M  V30 43 1 26 48
M  V30 44 1 27 28
M  V30 45 1 27 30
M  V30 46 1 28 29
M  V30 47 1 28 49
M  V30 48 1 28 50
M  V30 49 1 29 51
M  V30 50 1 29 52
M  V30 51 2 30 31
M  V30 52 1 30 35
M  V30 53 1 31 32
M  V30 54 2 32 33
M  V30 55 1 32 53
M  V30 56 1 33 34
M  V30 57 1 33 54
M  V30 58 2 34 35
M  V30 59 1 34 55
M  V30 END BOND
M  V30 END CTAB
M  END
> <s_m_entry_id>
1726

> <s_m_entry_name>
result.2025

> <s_m_Source_Path>
D:\OneDrive - zju.edu.cn\DOC\A-Finished\LCK_VS\Planet\LCK-8617

> <s_m_Source_File>
glide-dock_SP_top1262_2_pv.maegz

> <i_m_Source_File_Index>
1726

> <PLANET_affinity>
7.652

> <i_lp_mmshare_version>
54117

> <i_f3d_flags>
0

> <s_epik_input>
RmMxW2NIXVtjSF1bY0hdYyhjMTIpbihjKD1PKVtuSF1jMj1PKVtDSDJdYzNbY0hdW2NIXWMoRiljKFtjSF0zKUMoPU8pTjRbQ0gyXVtDSDJdTihbQ0gyXVtDSDJdNCljNW5bY0hdW2NIXVtjSF1uNQ==

> <s_epik_cmdline>
J2VwaWtfcHl0aG9uJywgJy1waCcsICc3LjAnLCAnLXRuJywgJzgnLCAnLW1hJywgJzUwMCcsICctaW1hZScsICc8aW5maWxlLm1hZT4nLCAnLW9tYWUnLCAnPG91dGZpbGUubWFlPic=

> <r_epik_Ionization_Penalty>
  0.0044

> <r_epik_Ionization_Penalty_Charging>
  0.0041

> <r_epik_Ionization_Penalty_Neutral>
  0.0003

> <r_epik_State_Penalty>
  0.0030

> <r_epik_Charging_Adjusted_Penalty>
0.0070838

> <i_epik_Tot_Q>
0

> <i_epik_Tot_abs_Q>
0

> <s_lp_Force_Field>
S-OPLS

> <r_lp_Energy>
67.9726

> <b_lp_Chiralities_Consistent>
1

> <s_lp_Variant>
O=C(N1)N(CC2=CC=C(F)C(C(N3CCN(C4=NC=CC=N4)CC3)=O)=C2)C5=C(C(F)=CC=C5)C1=O-1

> <s_i_glide_gridfile>
glide-grid_1

> <i_i_glide_lignum>
1729

> <i_i_glide_rotatable_bonds>
5

> <r_i_docking_score>
-7.13584757215424

> <r_i_glide_ligand_efficiency>
-0.203881359204407

> <r_i_glide_ligand_efficiency_sa>
-0.666909444578628

> <r_i_glide_ligand_efficiency_ln>
-1.56647691369188

> <r_i_glide_gscore>
-7.13884757215424

> <r_i_glide_lipo>
-2.29571784060489

> <r_i_glide_hbond>
-0.32

> <r_i_glide_metal>
0

> <r_i_glide_rewards>
-1.94418619209183

> <r_i_glide_evdw>
-47.0286483764648

> <r_i_glide_ecoul>
-4.24020910263062

> <r_i_glide_erotb>
0.442621359350787

> <r_i_glide_esite>
-0.0341011145904648

> <r_i_glide_emodel>
-71.6518031372572

> <r_i_glide_energy>
-51.2688574790955

> <r_i_glide_einternal>
2.35537719726562

> <i_i_glide_confnum>
313

> <i_i_glide_posenum>
394

> <r_i_glide_eff_state_penalty>
0.003

> <r_lp_tautomer_probability>
1

> <s_m_subgroup_title>
glide-dock_SP_top1262_2_pv

> <s_m_subgroupid>
glide-dock_SP_top1262_2_pv

> <b_m_subgroup_collapsed>
0

$$$$
CS(=O)(NC1=CC2=C(C=C1C)C=C(C(C3=C(N)N(C4=C(C)C=C(OC5=C(F)C=CC=C5F)N=C4)N=C3)=...
                    3D
 Schrodinger Suite 2021-3.
  0  0  0     0  0            999 V3000
M  V30 BEGIN CTAB
M  V30 COUNTS 61 65 0 0 0
M  V30 BEGIN ATOM
M  V30 1 C  33.8332 38.0320 78.2745 0
M  V30 2 S  35.1185 38.6354 79.4975 0
M  V30 3 O  36.4479 38.3487 78.9524 0
M  V30 4 O  34.7566 39.9838 79.9445 0
M  V30 5 N  34.8768 37.5105 80.8396 0
M  V30 6 C  33.6584 37.4509 81.5303 0
M  V30 7 C  33.1815 38.6034 82.1633 0
M  V30 8 C  32.9494 36.2387 81.5921 0
M  V30 9 C  33.4851 34.9803 80.9167 0
M  V30 10 C  31.7258 36.1605 82.2635 0
M  V30 11 C  31.2215 37.2960 82.9107 0
M  V30 12 C  31.9727 38.5073 82.8539 0
M  V30 13 C  30.0511 37.5646 83.6933 0
M  V30 14 C  30.1370 38.8819 84.1147 0
M  V30 15 N  31.2807 39.4424 83.5960 0
M  V30 16 C  29.3318 39.6893 85.0358 0
M  V30 17 O  29.7526 40.7423 85.5178 0
M  V30 18 C  28.0203 39.1832 85.4166 0
M  V30 19 C  27.0049 38.6766 84.6104 0
M  V30 20 N  26.8962 38.5406 83.2497 0
M  V30 21 N  25.9918 38.3267 85.4853 0
M  V30 22 N  26.2959 38.6256 86.7608 0
M  V30 23 C  27.4927 39.1556 86.7130 0
M  V30 24 C  24.7162 37.7943 85.2005 0
M  V30 25 C  24.5160 36.5486 84.5692 0
M  V30 26 C  25.6526 35.6139 84.1703 0
M  V30 27 C  23.2029 36.1253 84.3312 0
M  V30 28 C  22.1368 36.9159 84.7594 0
M  V30 29 N  22.3231 38.1176 85.3738 0
M  V30 30 C  23.5922 38.5388 85.5780 0
M  V30 31 O  20.8525 36.4281 84.6163 0
M  V30 32 C  19.8005 36.9835 85.3132 0
M  V30 33 C  18.8231 37.7301 84.6452 0
M  V30 34 F  18.9200 37.9568 83.3154 0
M  V30 35 C  17.7254 38.2281 85.3464 0
M  V30 36 C  17.5944 37.9735 86.7106 0
M  V30 37 C  18.5688 37.2410 87.3850 0
M  V30 38 C  19.6727 36.7491 86.6900 0
M  V30 39 F  20.5994 36.0153 87.3488 0
M  V30 40 H  33.7591 38.7495 77.4595 0
M  V30 41 H  32.8834 37.9578 78.8017 0
M  V30 42 H  34.1286 37.0543 77.8966 0
M  V30 43 H  35.3581 36.6330 80.7248 0
M  V30 44 H  33.7382 39.5285 82.1443 0
M  V30 45 H  32.8151 34.1269 81.0257 0
M  V30 46 H  33.6277 35.1561 79.8501 0
M  V30 47 H  34.4517 34.7063 81.3387 0
M  V30 48 H  31.1772 35.2295 82.2939 0
M  V30 49 H  29.2705 36.8685 83.9632 0
M  V30 50 H  31.5419 40.4005 83.7915 0
M  V30 51 H  27.6667 38.7779 82.6438 0
M  V30 52 H  26.0510 38.2016 82.8128 0
M  V30 53 H  27.9966 39.4989 87.6068 0
M  V30 54 H  25.4952 35.2409 83.1577 0
M  V30 55 H  26.6350 36.0778 84.1862 0
M  V30 56 H  25.6824 34.7551 84.8393 0
M  V30 57 H  23.0025 35.1713 83.8648 0
M  V30 58 H  23.6961 39.4986 86.0652 0
M  V30 59 H  16.9646 38.7966 84.8325 0
M  V30 60 H  16.7380 38.3565 87.2454 0
M  V30 61 H  18.4627 37.0458 88.4425 0
M  V30 END ATOM
M  V30 BEGIN BOND
M  V30 1 1 1 2
M  V30 2 1 1 40
M  V30 3 1 1 41
M  V30 4 1 1 42
M  V30 5 2 2 3
M  V30 6 2 2 4
M  V30 7 1 2 5
M  V30 8 1 5 6
M  V30 9 1 5 43
M  V30 10 2 6 7
M  V30 11 1 6 8
M  V30 12 1 7 12
M  V30 13 1 7 44
M  V30 14 1 8 9
M  V30 15 2 8 10
M  V30 16 1 9 45
M  V30 17 1 9 46
M  V30 18 1 9 47
M  V30 19 1 10 11
M  V30 20 1 10 48
M  V30 21 2 11 12
M  V30 22 1 11 13
M  V30 23 1 12 15
M  V30 24 2 13 14
M  V30 25 1 13 49
M  V30 26 1 14 15
M  V30 27 1 14 16
M  V30 28 1 15 50
M  V30 29 2 16 17
M  V30 30 1 16 18
M  V30 31 2 18 19
M  V30 32 1 18 23
M  V30 33 1 19 20
M  V30 34 1 19 21
M  V30 35 1 20 51
M  V30 36 1 20 52
M  V30 37 1 21 22
M  V30 38 1 21 24
M  V30 39 2 22 23
M  V30 40 1 23 53
M  V30 41 2 24 25
M  V30 42 1 24 30
M  V30 43 1 25 26
M  V30 44 1 25 27
M  V30 45 1 26 54
M  V30 46 1 26 55
M  V30 47 1 26 56
M  V30 48 2 27 28
M  V30 49 1 27 57
M  V30 50 1 28 29
M  V30 51 1 28 31
M  V30 52 2 29 30
M  V30 53 1 30 58
M  V30 54 1 31 32
M  V30 55 2 32 33
M  V30 56 1 32 38
M  V30 57 1 33 34
M  V30 58 1 33 35
M  V30 59 2 35 36
M  V30 60 1 35 59
M  V30 61 1 36 37
M  V30 62 1 36 60
M  V30 63 2 37 38
M  V30 64 1 37 61
M  V30 65 1 38 39
M  V30 END BOND
M  V30 END CTAB
M  END
> <s_m_entry_id>
1727

> <s_m_entry_name>
result.7952

> <s_m_Source_Path>
D:\OneDrive - zju.edu.cn\DOC\A-Finished\LCK_VS\Planet\LCK-8617

> <s_m_Source_File>
glide-dock_SP_top1262_2_pv.maegz

> <i_m_Source_File_Index>
1727

> <PLANET_affinity>
8.566

> <i_lp_mmshare_version>
54117

> <i_f3d_flags>
0

> <s_epik_input>
W0NIM11TKD1PKSg9TylbTkhdYyhjKFtDSDNdKVtjSF0xKVtjSF1jKGMxMilbbkhdYyhbY0hdMilDKD1PKWMzYyhbTkgyXSluKG5bY0hdMyktYzRjKFtDSDNdKVtjSF1jKG5bY0hdNClPYzVjKEYpW2NIXVtjSF1bY0hdYzVG

> <s_epik_cmdline>
J2VwaWtfcHl0aG9uJywgJy1waCcsICc3LjAnLCAnLXRuJywgJzgnLCAnLW1hJywgJzUwMCcsICctaW1hZScsICc8aW5maWxlLm1hZT4nLCAnLW9tYWUnLCAnPG91dGZpbGUubWFlPic=

> <r_epik_Ionization_Penalty>
  0.0312

> <r_epik_Ionization_Penalty_Charging>
  0.0000

> <r_epik_Ionization_Penalty_Neutral>
  0.0312

> <r_epik_State_Penalty>
  0.0248

> <r_epik_Charging_Adjusted_Penalty>
0.0247773

> <i_epik_Tot_Q>
0

> <i_epik_Tot_abs_Q>
0

> <s_lp_Force_Field>
S-OPLS

> <r_lp_Energy>
40.0068

> <b_lp_Chiralities_Consistent>
1

> <s_lp_Variant>
CS(=O)(NC1=CC2=C(C=C1C)C=C(C(C3=C(N)N(C4=C(C)C=C(OC5=C(F)C=CC=C5F)N=C4)N=C3)=...-1

> <s_i_glide_gridfile>
glide-grid_1

> <i_i_glide_lignum>
761

> <i_i_glide_rotatable_bonds>
7

> <r_i_docking_score>
-7.13562786464642

> <r_i_glide_ligand_efficiency>
-0.182964817042216

> <r_i_glide_ligand_efficiency_sa>
-0.620472380464843

> <r_i_glide_ligand_efficiency_ln>
-1.53008117102266

> <r_i_glide_gscore>
-7.16042786464642

> <r_i_glide_lipo>
-3.34491031892437

> <r_i_glide_hbond>
-0.32

> <r_i_glide_metal>
0

> <r_i_glide_rewards>
-1.08727365113624

> <r_i_glide_evdw>
-50.0322875976562

> <r_i_glide_ecoul>
-1.61932420730591

> <r_i_glide_erotb>
0.336269116392896

> <r_i_glide_esite>
0

> <r_i_glide_emodel>
-70.6037011121381

> <r_i_glide_energy>
-51.6516118049622

> <r_i_glide_einternal>
8.99666213989258

> <i_i_glide_confnum>
26

> <i_i_glide_posenum>
162

> <r_i_glide_eff_state_penalty>
0.0248

> <r_lp_tautomer_probability>
1

> <s_m_subgroup_title>
glide-dock_SP_top1262_2_pv

> <s_m_subgroupid>
glide-dock_SP_top1262_2_pv

> <b_m_subgroup_collapsed>
0

$$$$
OC1=CC(O)=C(C(C)C)C=C1C(N2CC(C=CC(CN3CCN(C)CC3)=C4)=C4C2)=O
                    3D
 Schrodinger Suite 2021-3.
  0  0  0     0  0            999 V3000
M  V30 BEGIN CTAB
M  V30 COUNTS 62 65 0 0 0
M  V30 BEGIN ATOM
M  V30 1 O  23.6830 34.7567 82.0435 0
M  V30 2 C  23.4174 35.5565 83.1220 0
M  V30 3 C  22.0828 35.7743 83.4415 0
M  V30 4 C  21.7335 36.5561 84.5359 0
M  V30 5 O  20.4016 36.7443 84.7919 0
M  V30 6 C  22.7320 37.1102 85.3524 0
M  V30 7 C  22.4101 37.9385 86.6033 0
M  V30 8 C  21.6458 37.1266 87.6652 0
M  V30 9 C  21.7157 39.2737 86.2700 0
M  V30 10 C  24.0738 36.8808 85.0226 0
M  V30 11 C  24.4385 36.1358 83.8903 0
M  V30 12 C  25.8965 35.8963 83.5544 0
M  V30 13 O  26.2597 34.7593 83.2442 0
M  V30 14 N  26.7689 36.9358 83.6002 0
M  V30 15 C  26.4157 38.3608 83.6396 0
M  V30 16 C  28.2010 36.7339 83.3775 0
M  V30 17 C  28.7726 38.1087 83.5850 0
M  V30 18 C  27.7543 39.0488 83.6438 0
M  V30 19 C  30.1039 38.5098 83.6435 0
M  V30 20 C  30.4228 39.8724 83.6438 0
M  V30 21 C  29.3927 40.8192 83.6865 0
M  V30 22 C  28.0586 40.4090 83.7027 0
M  V30 23 C  31.8767 40.3222 83.6097 0
M  V30 24 N  32.5434 40.2287 82.2117 0 CHG=1
M  V30 25 C  33.9373 40.9053 82.2361 0
M  V30 26 C  34.6049 40.7504 80.8477 0
M  V30 27 N  34.7836 39.3264 80.5336 0 CFG=2
M  V30 28 C  35.4845 39.1566 79.2662 0
M  V30 29 C  33.4641 38.7021 80.4116 0
M  V30 30 C  32.7083 38.7548 81.7503 0
M  V30 31 H  22.9131 34.2271 81.7879 0
M  V30 32 H  21.3066 35.3212 82.8432 0
M  V30 33 H  20.2664 37.3122 85.5543 0
M  V30 34 H  23.3607 38.2089 87.0679 0
M  V30 35 H  22.0828 36.1372 87.8069 0
M  V30 36 H  20.5953 36.9873 87.4123 0
M  V30 37 H  21.6835 37.6346 88.6277 0
M  V30 38 H  22.2808 39.8341 85.5241 0
M  V30 39 H  20.7064 39.1362 85.8826 0
M  V30 40 H  21.6382 39.9060 87.1556 0
M  V30 41 H  24.8397 37.2621 85.6824 0
M  V30 42 H  25.8016 38.6265 82.7802 0
M  V30 43 H  25.8550 38.6361 84.5291 0
M  V30 44 H  28.6288 35.9892 84.0435 0
M  V30 45 H  28.3708 36.3629 82.3648 0
M  V30 46 H  30.8861 37.7655 83.6305 0
M  V30 47 H  29.6240 41.8749 83.7156 0
M  V30 48 H  27.2754 41.1517 83.7520 0
M  V30 49 H  31.9645 41.3711 83.9041 0
M  V30 50 H  32.4937 39.7266 84.2868 0
M  V30 51 H  33.7712 41.9542 82.4871 0
M  V30 52 H  34.5228 40.4349 83.0300 0
M  V30 53 H  34.0152 41.2554 80.0776 0
M  V30 54 H  35.5791 41.2433 80.8655 0
M  V30 55 H  35.6805 38.1008 79.0712 0
M  V30 56 H  34.8829 39.5440 78.4433 0
M  V30 57 H  36.4469 39.6700 79.2713 0
M  V30 58 H  33.5731 37.6576 80.1109 0
M  V30 59 H  32.8834 39.1912 79.6288 0
M  V30 60 H  33.2184 38.1984 82.5397 0
M  V30 61 H  31.7083 38.3506 81.5977 0
M  V30 62 H  31.9697 40.7149 81.5351 0
M  V30 END ATOM
M  V30 BEGIN BOND
M  V30 1 1 1 2
M  V30 2 1 1 31
M  V30 3 2 2 3
M  V30 4 1 2 11
M  V30 5 1 3 4
M  V30 6 1 3 32
M  V30 7 1 4 5
M  V30 8 2 4 6
M  V30 9 1 5 33
M  V30 10 1 6 7
M  V30 11 1 6 10
M  V30 12 1 7 8
M  V30 13 1 7 9
M  V30 14 1 7 34
M  V30 15 1 8 35
M  V30 16 1 8 36
M  V30 17 1 8 37
M  V30 18 1 9 38
M  V30 19 1 9 39
M  V30 20 1 9 40
M  V30 21 2 10 11
M  V30 22 1 10 41
M  V30 23 1 11 12
M  V30 24 2 12 13
M  V30 25 1 12 14
M  V30 26 1 14 15
M  V30 27 1 14 16
M  V30 28 1 15 18
M  V30 29 1 15 42
M  V30 30 1 15 43
M  V30 31 1 16 17
M  V30 32 1 16 44
M  V30 33 1 16 45
M  V30 34 2 17 18
M  V30 35 1 17 19
M  V30 36 1 18 22
M  V30 37 2 19 20
M  V30 38 1 19 46
M  V30 39 1 20 21
M  V30 40 1 20 23
M  V30 41 2 21 22
M  V30 42 1 21 47
M  V30 43 1 22 48
M  V30 44 1 23 24
M  V30 45 1 23 49
M  V30 46 1 23 50
M  V30 47 1 24 25
M  V30 48 1 24 30
M  V30 49 1 24 62
M  V30 50 1 25 26
M  V30 51 1 25 51
M  V30 52 1 25 52
M  V30 53 1 26 27
M  V30 54 1 26 53
M  V30 55 1 26 54
M  V30 56 1 27 28
M  V30 57 1 27 29
M  V30 58 1 28 55
M  V30 59 1 28 56
M  V30 60 1 28 57
M  V30 61 1 29 30
M  V30 62 1 29 58
M  V30 63 1 29 59
M  V30 64 1 30 60
M  V30 65 1 30 61
M  V30 END BOND
M  V30 END CTAB
M  END
> <s_m_entry_id>
1729

> <s_m_entry_name>
result.4028

> <s_m_Source_Path>
D:\OneDrive - zju.edu.cn\DOC\A-Finished\LCK_VS\Planet\LCK-8617

> <s_m_Source_File>
glide-dock_SP_top1262_2_pv.maegz

> <i_m_Source_File_Index>
1729

> <PLANET_affinity>
7.107

> <i_lp_mmshare_version>
54117

> <i_f3d_flags>
0

> <s_epik_input>
W09IXWMxW2NIXWMoW09IXSljKFtDSF0oW0NIM10pW0NIM10pW2NIXWMxQyg9TylOKFtDSDJdMilbQ0gyXWMoYzIzKVtjSF1bY0hdYyhbY0hdMylbQ0gyXU40W0NIMl1bQ0gyXU4oW0NIM10pW0NIMl1bQ0gyXTQ=

> <s_epik_cmdline>
J2VwaWtfcHl0aG9uJywgJy1waCcsICc3LjAnLCAnLXRuJywgJzgnLCAnLW1hJywgJzUwMCcsICctaW1hZScsICc8aW5maWxlLm1hZT4nLCAnLW9tYWUnLCAnPG91dGZpbGUubWFlPic=

> <r_epik_Ionization_Penalty>
  0.1208

> <r_epik_Ionization_Penalty_Charging>
  0.0155

> <r_epik_Ionization_Penalty_Neutral>
  0.1054

> <r_epik_State_Penalty>
  0.2880

> <r_epik_Charging_Adjusted_Penalty>
0.303464

> <i_epik_Tot_Q>
1

> <i_epik_Tot_abs_Q>
1

> <s_lp_Force_Field>
S-OPLS

> <r_lp_Energy>
65.696

> <b_lp_Chiralities_Consistent>
1

> <s_lp_Variant>
OC1=CC(O)=C(C(C)C)C=C1C(N2CC(C=CC(CN3CCN(C)CC3)=C4)=C4C2)=O-1

> <s_i_glide_gridfile>
glide-grid_1

> <i_i_glide_lignum>
2522

> <i_i_glide_rotatable_bonds>
7

> <r_i_docking_score>
-7.13483710134223

> <r_i_glide_ligand_efficiency>
-0.237827903378074

> <r_i_glide_ligand_efficiency_sa>
-0.738986591361393

> <r_i_glide_ligand_efficiency_ln>
-1.62111272970168

> <r_i_glide_gscore>
-7.42283710134223

> <r_i_glide_lipo>
-2.79302680019719

> <r_i_glide_hbond>
-0.218729244130745

> <r_i_glide_metal>
0

> <r_i_glide_rewards>
-1.38631349499773

> <r_i_glide_evdw>
-34.5020217895508

> <r_i_glide_ecoul>
-11.7816829681396

> <r_i_glide_erotb>
0.46758597268192

> <r_i_glide_esite>
0

> <r_i_glide_emodel>
-68.5828160615568

> <r_i_glide_energy>
-46.2837047576904

> <r_i_glide_einternal>
4.00810241699219

> <i_i_glide_confnum>
1

> <i_i_glide_posenum>
152

> <r_i_glide_eff_state_penalty>
0.288

> <r_lp_tautomer_probability>
1

> <s_m_subgroup_title>
glide-dock_SP_top1262_2_pv

> <s_m_subgroupid>
glide-dock_SP_top1262_2_pv

> <b_m_subgroup_collapsed>
0

$$$$
O=C(C(C=CC1=C2Cl)=CC1=NC3=C2CCCC3)NCCC[C@@H](CC4=CC=CC=C4)C(N5CCC(CN6C=NC7=C(...
                    3D
 Schrodinger Suite 2021-3.
  0  0  0     0  0            999 V3000
M  V30 BEGIN CTAB
M  V30 COUNTS 120 127 0 0 0
M  V30 BEGIN ATOM
M  V30 1 C  27.8773 50.7553 83.1218 0
M  V30 2 C  28.1788 52.2109 83.4957 0
M  V30 3 C  29.6561 52.5027 83.2052 0
M  V30 4 C  30.5915 51.6191 84.0558 0
M  V30 5 C  30.1070 50.1723 84.2367 0
M  V30 6 C  30.9040 49.2225 84.9011 0
M  V30 7 Cl 32.4908 49.6637 85.4506 0
M  V30 8 C  28.8202 49.7763 83.8136 0
M  V30 9 N  28.3280 48.5367 84.0435 0
M  V30 10 C  29.0914 47.6107 84.6780 0
M  V30 11 C  30.3989 47.9134 85.1489 0
M  V30 12 C  28.5546 46.3161 84.8728 0
M  V30 13 C  29.2819 45.3336 85.5612 0
M  V30 14 C  30.5541 45.6467 86.0466 0
M  V30 15 C  31.1202 46.9029 85.8383 0
M  V30 16 C  28.7102 43.9553 85.7961 0
M  V30 17 O  28.9579 43.3362 86.8326 0
M  V30 18 N  27.9501 43.4596 84.8018 0
M  V30 19 C  27.3419 42.1325 84.7721 0
M  V30 20 C  25.8052 42.1898 84.6918 0
M  V30 21 C  25.0831 42.1595 86.0632 0
M  V30 22 C  23.5756 42.5790 86.0964 0 CFG=1
M  V30 23 C  23.3434 44.1070 85.9183 0
M  V30 24 C  24.0984 44.9813 86.9072 0
M  V30 25 C  23.6022 45.1593 88.1993 0
M  V30 26 C  24.3015 45.9523 89.1076 0
M  V30 27 C  25.4924 46.5648 88.7183 0
M  V30 28 C  25.9875 46.3932 87.4273 0
M  V30 29 C  25.2918 45.5994 86.5202 0
M  V30 30 C  22.7097 41.8079 85.0663 0
M  V30 31 O  22.9876 41.9483 83.8672 0
M  V30 32 N  21.5943 41.1152 85.4491 0
M  V30 33 C  21.2470 40.7139 86.8135 0
M  V30 34 C  21.8021 39.2864 87.0369 0
M  V30 35 C  20.8573 40.3432 84.4460 0
M  V30 36 C  21.4366 38.9024 84.4694 0
M  V30 37 C  21.5821 38.2427 85.8826 0
M  V30 38 O  20.2291 37.8986 86.1225 0
M  V30 39 C  22.4657 36.9615 85.9656 0
M  V30 40 N  23.6854 36.8801 85.1217 0
M  V30 41 C  23.6834 36.0464 84.0205 0
M  V30 42 N  24.7269 35.8225 83.3057 0
M  V30 43 C  24.8062 37.5524 85.5735 0
M  V30 44 O  24.8424 38.2413 86.5949 0
M  V30 45 C  26.0329 37.3147 84.7222 0
M  V30 46 C  25.9415 36.4363 83.6415 0
M  V30 47 C  27.2498 37.9117 85.0530 0
M  V30 48 C  28.3892 37.5869 84.3206 0
M  V30 49 C  28.3150 36.6871 83.2434 0
M  V30 50 C  27.0784 36.1379 82.8878 0
M  V30 51 N  29.4301 36.2360 82.5188 0
M  V30 52 C  30.6764 36.7559 82.4780 0
M  V30 53 O  31.0151 37.8190 83.0001 0
M  V30 54 C  31.7102 35.9599 81.6640 0
M  V30 55 C  33.1473 35.9917 82.2338 0
M  V30 56 N  33.2777 35.6086 83.6502 0 CFG=1
M  V30 57 C  34.5800 35.9752 84.2316 0
M  V30 58 C  35.7303 35.0819 83.7021 0
M  V30 59 N  35.3924 33.6170 84.0435 0 CHG=1
M  V30 60 C  36.4972 32.6390 83.6055 0
M  V30 61 C  34.0183 33.2196 83.4528 0
M  V30 62 C  32.9530 34.2126 83.9830 0
M  V30 63 H  26.8384 50.5116 83.3526 0
M  V30 64 H  27.9798 50.6302 82.0441 0
M  V30 65 H  27.5443 52.8892 82.9243 0
M  V30 66 H  27.9595 52.3884 84.5511 0
M  V30 67 H  29.8562 52.3266 82.1457 0
M  V30 68 H  29.8809 53.5542 83.3771 0
M  V30 69 H  31.5944 51.6395 83.6289 0
M  V30 70 H  30.6822 52.0632 85.0491 0
M  V30 71 H  27.5646 46.1119 84.4936 0
M  V30 72 H  31.1320 44.8993 86.5746 0
M  V30 73 H  32.1134 47.1062 86.2112 0
M  V30 74 H  27.9208 43.9822 83.9375 0
M  V30 75 H  27.7292 41.6070 83.8982 0
M  V30 76 H  27.6488 41.5096 85.6145 0
M  V30 77 H  25.4952 43.0698 84.1277 0
M  V30 78 H  25.4654 41.3349 84.1063 0
M  V30 79 H  25.1690 41.1490 86.4709 0
M  V30 80 H  25.6357 42.7752 86.7744 0
M  V30 81 H  23.2399 42.3409 87.1006 0
M  V30 82 H  23.5928 44.4224 84.9021 0
M  V30 83 H  22.2791 44.3327 86.0475 0
M  V30 84 H  22.6772 44.6880 88.4995 0
M  V30 85 H  23.9220 46.0886 90.1100 0
M  V30 86 H  26.0345 47.1752 89.4246 0
M  V30 87 H  26.9138 46.8691 87.1375 0
M  V30 88 H  25.6679 45.4587 85.5177 0
M  V30 89 H  21.4917 41.4519 87.5745 0
M  V30 90 H  20.1577 40.7040 86.8589 0
M  V30 91 H  22.8680 39.4138 87.1819 0
M  V30 92 H  21.4796 38.8876 88.0003 0
M  V30 93 H  19.8041 40.3439 84.7212 0
M  V30 94 H  20.8834 40.8604 83.4890 0
M  V30 95 H  20.9038 38.2565 83.7661 0
M  V30 96 H  22.4374 38.9713 84.0433 0
M  V30 97 H  19.7056 38.7032 86.1052 0
M  V30 98 H  22.7245 36.7615 87.0085 0
M  V30 99 H  21.8205 36.1157 85.7079 0
M  V30 100 H  22.7448 35.5640 83.7623 0
M  V30 101 H  27.3383 38.5882 85.8940 0
M  V30 102 H  29.3267 38.0172 84.6369 0
M  V30 103 H  26.9904 35.4592 82.0513 0
M  V30 104 H  29.2572 35.4347 81.9288 0
M  V30 105 H  31.3652 34.9227 81.6432 0
M  V30 106 H  31.7060 36.3583 80.6491 0
M  V30 107 H  33.7786 35.3554 81.6140 0
M  V30 108 H  33.5415 36.9981 82.0760 0
M  V30 109 H  34.7932 37.0246 84.0253 0
M  V30 110 H  34.5172 35.8983 85.3187 0
M  V30 111 H  36.6735 35.3064 84.2032 0
M  V30 112 H  35.8666 35.1497 82.6219 0
M  V30 113 H  36.6115 32.7120 82.5232 0
M  V30 114 H  37.4071 32.9264 84.1329 0
M  V30 115 H  36.1821 31.6403 83.9170 0
M  V30 116 H  33.8165 32.2052 83.8032 0
M  V30 117 H  34.1011 33.2188 82.3660 0
M  V30 118 H  32.8834 34.1217 85.0711 0
M  V30 119 H  31.9696 33.9292 83.6109 0
M  V30 120 H  35.2888 33.5523 85.0627 0
M  V30 END ATOM
M  V30 BEGIN BOND
M  V30 1 1 1 2
M  V30 2 1 1 8
M  V30 3 1 1 63
M  V30 4 1 1 64
M  V30 5 1 2 3
M  V30 6 1 2 65
M  V30 7 1 2 66
M  V30 8 1 3 4
M  V30 9 1 3 67
M  V30 10 1 3 68
M  V30 11 1 4 5
M  V30 12 1 4 69
M  V30 13 1 4 70
M  V30 14 1 5 6
M  V30 15 2 5 8
M  V30 16 1 6 7
M  V30 17 2 6 11
M  V30 18 1 8 9
M  V30 19 2 9 10
M  V30 20 1 10 11
M  V30 21 1 10 12
M  V30 22 1 11 15
M  V30 23 2 12 13
M  V30 24 1 12 71
M  V30 25 1 13 14
M  V30 26 1 13 16
M  V30 27 2 14 15
M  V30 28 1 14 72
M  V30 29 1 15 73
M  V30 30 2 16 17
M  V30 31 1 16 18
M  V30 32 1 18 19
M  V30 33 1 18 74
M  V30 34 1 19 20
M  V30 35 1 19 75
M  V30 36 1 19 76
M  V30 37 1 20 21
M  V30 38 1 20 77
M  V30 39 1 20 78
M  V30 40 1 21 22
M  V30 41 1 21 79
M  V30 42 1 21 80
M  V30 43 1 22 23
M  V30 44 1 22 30
M  V30 45 1 22 81
M  V30 46 1 23 24
M  V30 47 1 23 82
M  V30 48 1 23 83
M  V30 49 2 24 25
M  V30 50 1 24 29
M  V30 51 1 25 26
M  V30 52 1 25 84
M  V30 53 2 26 27
M  V30 54 1 26 85
M  V30 55 1 27 28
M  V30 56 1 27 86
M  V30 57 2 28 29
M  V30 58 1 28 87
M  V30 59 1 29 88
M  V30 60 2 30 31
M  V30 61 1 30 32
M  V30 62 1 32 33
M  V30 63 1 32 35
M  V30 64 1 33 34
M  V30 65 1 33 89
M  V30 66 1 33 90
M  V30 67 1 34 37
M  V30 68 1 34 91
M  V30 69 1 34 92
M  V30 70 1 35 36
M  V30 71 1 35 93
M  V30 72 1 35 94
M  V30 73 1 36 37
M  V30 74 1 36 95
M  V30 75 1 36 96
M  V30 76 1 37 38
M  V30 77 1 37 39
M  V30 78 1 38 97
M  V30 79 1 39 40
M  V30 80 1 39 98
M  V30 81 1 39 99
M  V30 82 1 40 41
M  V30 83 1 40 43
M  V30 84 2 41 42
M  V30 85 1 41 100
M  V30 86 1 42 46
M  V30 87 2 43 44
M  V30 88 1 43 45
M  V30 89 2 45 46
M  V30 90 1 45 47
M  V30 91 1 46 50
M  V30 92 2 47 48
M  V30 93 1 47 101
M  V30 94 1 48 49
M  V30 95 1 48 102
M  V30 96 2 49 50
M  V30 97 1 49 51
M  V30 98 1 50 103
M  V30 99 1 51 52
M  V30 100 1 51 104
M  V30 101 2 52 53
M  V30 102 1 52 54
M  V30 103 1 54 55
M  V30 104 1 54 105
M  V30 105 1 54 106
M  V30 106 1 55 56
M  V30 107 1 55 107
M  V30 108 1 55 108
M  V30 109 1 56 57
M  V30 110 1 56 62
M  V30 111 1 57 58
M  V30 112 1 57 109
M  V30 113 1 57 110
M  V30 114 1 58 59
M  V30 115 1 58 111
M  V30 116 1 58 112
M  V30 117 1 59 60
M  V30 118 1 59 61
M  V30 119 1 59 120
M  V30 120 1 60 113
M  V30 121 1 60 114
M  V30 122 1 60 115
M  V30 123 1 61 62
M  V30 124 1 61 116
M  V30 125 1 61 117
M  V30 126 1 62 118
M  V30 127 1 62 119
M  V30 END BOND
M  V30 END CTAB
M  END
> <s_m_entry_id>
1730

> <s_m_entry_name>
result.1066

> <s_m_Source_Path>
D:\OneDrive - zju.edu.cn\DOC\A-Finished\LCK_VS\Planet\LCK-8617

> <s_m_Source_File>
glide-dock_SP_top1262_2_pv.maegz

> <i_m_Source_File_Index>
1730

> <PLANET_affinity>
12.289

> <i_lp_mmshare_version>
54117

> <i_f3d_flags>
0

> <s_epik_input>
W0NIMl0xW0NIMl1bQ0gyXVtDSDJdYyhjMTIpbmMzYyhjMkNsKVtjSF1bY0hdYyhbY0hdMylDKD1PKVtOSF1bQ0gyXVtDSDJdW0NIMl1bQ0BASF0oW0NIMl1jNFtjSF1bY0hdW2NIXVtjSF1bY0hdNClDKD1PKU4oW0NIMl1bQ0gyXTUpW0NIMl1bQ0gyXUM1KFtPSF0pW0NIMl1uKGM2PU8pW2NIXW5jKGM2NylbY0hdYyhbY0hdW2NIXTcpW05IXUMoPU8pW0NIMl1bQ0gyXU44W0NIMl1bQ0gyXU4oW0NIM10pW0NIMl1bQ0gyXTg=

> <s_epik_cmdline>
J2VwaWtfcHl0aG9uJywgJy1waCcsICc3LjAnLCAnLXRuJywgJzgnLCAnLW1hJywgJzUwMCcsICctaW1hZScsICc8aW5maWxlLm1hZT4nLCAnLW9tYWUnLCAnPG91dGZpbGUubWFlPic=

> <r_epik_Ionization_Penalty>
  0.0328

> <r_epik_Ionization_Penalty_Charging>
  0.0316

> <r_epik_Ionization_Penalty_Neutral>
  0.0012

> <r_epik_State_Penalty>
  0.0634

> <r_epik_Charging_Adjusted_Penalty>
0.0950884

> <i_epik_Tot_Q>
1

> <i_epik_Tot_abs_Q>
1

> <s_lp_Force_Field>
S-OPLS

> <r_lp_Energy>
107.636

> <b_lp_Chiralities_Consistent>
1

> <s_lp_Variant>
O=C(C(C=CC1=C2Cl)=CC1=NC3=C2CCCC3)NCCC[C@@H](CC4=CC=CC=C4)C(N5CCC(CN6C=NC7=C(...-1

> <s_i_glide_gridfile>
glide-grid_1

> <i_i_glide_lignum>
104

> <i_i_glide_rotatable_bonds>
18

> <r_i_docking_score>
-7.13474014104048

> <r_i_glide_ligand_efficiency>
-0.11507645388775

> <r_i_glide_ligand_efficiency_sa>
-0.455460130687517

> <r_i_glide_ligand_efficiency_ln>
-1.39156487917524

> <r_i_glide_gscore>
-7.19814014104048

> <r_i_glide_lipo>
-2.09522717320216

> <r_i_glide_hbond>
-0.2

> <r_i_glide_metal>
0

> <r_i_glide_rewards>
-0.909622137673063

> <r_i_glide_evdw>
-60.3294410705566

> <r_i_glide_ecoul>
-7.11886501312256

> <r_i_glide_erotb>
0.228746685206731

> <r_i_glide_esite>
-0.137735709875771

> <r_i_glide_emodel>
-90.0708436986969

> <r_i_glide_energy>
-67.4483060836792

> <r_i_glide_einternal>
17.9079818725586

> <i_i_glide_confnum>
305

> <i_i_glide_posenum>
111

> <r_i_glide_eff_state_penalty>
0.0634

> <r_lp_tautomer_probability>
1

> <s_m_subgroup_title>
glide-dock_SP_top1262_2_pv

> <s_m_subgroupid>
glide-dock_SP_top1262_2_pv

> <b_m_subgroup_collapsed>
0

$$$$
ClC1=CN=C(N[C@@H]2CC[C@@H](N)CC2)C=C1C3=NC(NCC4=CC(F)=CC=C4)=CC=C3
                    3D
 Schrodinger Suite 2021-3.
  0  0  0     0  0            999 V3000
M  V30 BEGIN CTAB
M  V30 COUNTS 56 59 0 0 0
M  V30 BEGIN ATOM
M  V30 1 C  32.4073 34.9405 82.3717 0
M  V30 2 C  33.8582 35.1729 81.9110 0
M  V30 3 C  33.8947 36.0135 80.6156 0 CFG=2
M  V30 4 N  35.3560 36.2610 80.2126 0 CHG=1
M  V30 5 C  33.1799 37.3689 80.8064 0
M  V30 6 C  31.7254 37.1663 81.2708 0
M  V30 7 C  31.6051 36.2559 82.5212 0 CFG=1
M  V30 8 N  30.2053 35.8769 82.6987 0
M  V30 9 C  29.2266 36.7601 83.1744 0
M  V30 10 N  29.5699 37.9863 83.6467 0
M  V30 11 C  28.5761 38.8096 84.0609 0
M  V30 12 C  27.2262 38.4501 84.0440 0
M  V30 13 Cl 26.0614 39.6287 84.5449 0
M  V30 14 C  27.9020 36.3304 83.1358 0
M  V30 15 C  26.8700 37.1604 83.5950 0
M  V30 16 C  25.4736 36.6278 83.5922 0
M  V30 17 N  24.7219 36.8666 84.7012 0
M  V30 18 C  23.4655 36.3625 84.7810 0
M  V30 19 C  22.9148 35.5949 83.7462 0
M  V30 20 C  23.6865 35.3460 82.6106 0
M  V30 21 C  24.9776 35.8653 82.5270 0
M  V30 22 N  22.7981 36.6612 85.9778 0
M  V30 23 C  21.5993 35.9651 86.4430 0
M  V30 24 C  20.3121 36.7605 86.2227 0
M  V30 25 C  19.9949 37.3401 84.9854 0
M  V30 26 C  18.7886 38.0240 84.8151 0
M  V30 27 F  18.4829 38.5738 83.6190 0
M  V30 28 C  17.8920 38.1389 85.8765 0
M  V30 29 C  18.1920 37.5568 87.1063 0
M  V30 30 C  19.3893 36.8590 87.2721 0
M  V30 31 H  32.4049 34.3955 83.3179 0
M  V30 32 H  31.9187 34.2860 81.6468 0
M  V30 33 H  34.3938 35.6909 82.7106 0
M  V30 34 H  34.3923 34.2276 81.7918 0
M  V30 35 H  33.3940 35.4573 79.8168 0
M  V30 36 H  35.8377 36.7723 80.9383 0
M  V30 37 H  35.8299 35.3808 80.0674 0
M  V30 38 H  33.6988 37.9611 81.5639 0
M  V30 39 H  33.2271 37.9804 79.9019 0
M  V30 40 H  31.1502 36.7551 80.4437 0
M  V30 41 H  31.2839 38.1392 81.4845 0
M  V30 42 H  31.9348 36.8113 83.4024 0
M  V30 43 H  29.8717 35.1330 82.1014 0
M  V30 44 H  28.8812 39.7862 84.4089 0
M  V30 45 H  27.6791 35.3378 82.7716 0
M  V30 46 H  21.9185 35.1883 83.8076 0
M  V30 47 H  23.2831 34.7573 81.8000 0
M  V30 48 H  25.5799 35.6821 81.6482 0
M  V30 49 H  23.3381 37.1663 86.6648 0
M  V30 50 H  21.7309 35.7994 87.5132 0
M  V30 51 H  21.5106 34.9715 86.0053 0
M  V30 52 H  20.6790 37.2721 84.1537 0
M  V30 53 H  16.9634 38.6771 85.7477 0
M  V30 54 H  17.4923 37.6447 87.9258 0
M  V30 55 H  19.5993 36.4011 88.2282 0
M  V30 56 H  35.3963 36.7950 79.3563 0
M  V30 END ATOM
M  V30 BEGIN BOND
M  V30 1 1 1 2
M  V30 2 1 1 7
M  V30 3 1 1 31
M  V30 4 1 1 32
M  V30 5 1 2 3
M  V30 6 1 2 33
M  V30 7 1 2 34
M  V30 8 1 3 4
M  V30 9 1 3 5
M  V30 10 1 3 35
M  V30 11 1 4 36
M  V30 12 1 4 37
M  V30 13 1 4 56
M  V30 14 1 5 6
M  V30 15 1 5 38
M  V30 16 1 5 39
M  V30 17 1 6 7
M  V30 18 1 6 40
M  V30 19 1 6 41
M  V30 20 1 7 8
M  V30 21 1 7 42
M  V30 22 1 8 9
M  V30 23 1 8 43
M  V30 24 2 9 10
M  V30 25 1 9 14
M  V30 26 1 10 11
M  V30 27 2 11 12
M  V30 28 1 11 44
M  V30 29 1 12 13
M  V30 30 1 12 15
M  V30 31 2 14 15
M  V30 32 1 14 45
M  V30 33 1 15 16
M  V30 34 2 16 17
M  V30 35 1 16 21
M  V30 36 1 17 18
M  V30 37 2 18 19
M  V30 38 1 18 22
M  V30 39 1 19 20
M  V30 40 1 19 46
M  V30 41 2 20 21
M  V30 42 1 20 47
M  V30 43 1 21 48
M  V30 44 1 22 23
M  V30 45 1 22 49
M  V30 46 1 23 24
M  V30 47 1 23 50
M  V30 48 1 23 51
M  V30 49 2 24 25
M  V30 50 1 24 30
M  V30 51 1 25 26
M  V30 52 1 25 52
M  V30 53 1 26 27
M  V30 54 2 26 28
M  V30 55 1 28 29
M  V30 56 1 28 53
M  V30 57 2 29 30
M  V30 58 1 29 54
M  V30 59 1 30 55
M  V30 END BOND
M  V30 END CTAB
M  END
> <s_m_entry_id>
1733

> <s_m_entry_name>
result.488

> <s_m_Source_Path>
D:\OneDrive - zju.edu.cn\DOC\A-Finished\LCK_VS\Planet\LCK-8617

> <s_m_Source_File>
glide-dock_SP_top1262_2_pv.maegz

> <i_m_Source_File_Index>
1733

> <PLANET_affinity>
7.087

> <i_lp_mmshare_version>
54117

> <i_f3d_flags>
0

> <s_epik_input>
W05IMl1bQ0BIXTFbQ0gyXVtDSDJdW0NAQEhdKFtDSDJdW0NIMl0xKVtOSF1jMm5bY0hdYyhDbCljKFtjSF0yKS1jM25jKFtjSF1bY0hdW2NIXTMpW05IXVtDSDJdYzRbY0hdYyhGKVtjSF1bY0hdW2NIXTQ=

> <s_epik_cmdline>
J2VwaWtfcHl0aG9uJywgJy1waCcsICc3LjAnLCAnLXRuJywgJzgnLCAnLW1hJywgJzUwMCcsICctaW1hZScsICc8aW5maWxlLm1hZT4nLCAnLW9tYWUnLCAnPG91dGZpbGUubWFlPic=

> <r_epik_Ionization_Penalty>
  0.0359

> <r_epik_Ionization_Penalty_Charging>
  0.0002

> <r_epik_Ionization_Penalty_Neutral>
  0.0357

> <r_epik_State_Penalty>
  0.0293

> <r_epik_Charging_Adjusted_Penalty>
0.0294899

> <i_epik_Tot_Q>
1

> <i_epik_Tot_abs_Q>
1

> <s_lp_Force_Field>
S-OPLS

> <r_lp_Energy>
66.1745

> <b_lp_Chiralities_Consistent>
1

> <s_lp_Variant>
ClC1=CN=C(N[C@@H]2CC[C@@H](N)CC2)C=C1C3=NC(NCC4=CC(F)=CC=C4)=CC=C3-1

> <s_i_glide_gridfile>
glide-grid_1

> <i_i_glide_lignum>
2551

> <i_i_glide_rotatable_bonds>
6

> <r_i_docking_score>
-7.13422172488459

> <r_i_glide_ligand_efficiency>
-0.237807390829486

> <r_i_glide_ligand_efficiency_sa>
-0.738922854103713

> <r_i_glide_ligand_efficiency_ln>
-1.62097290946544

> <r_i_glide_gscore>
-7.16352172488459

> <r_i_glide_lipo>
-4.08026714182268

> <r_i_glide_hbond>
0

> <r_i_glide_metal>
0

> <r_i_glide_rewards>
-0.723706714662988

> <r_i_glide_evdw>
-44.6356468200684

> <r_i_glide_ecoul>
-5.20702886581421

> <r_i_glide_erotb>
0.653423249097378

> <r_i_glide_esite>
-0.000134446620752271

> <r_i_glide_emodel>
-72.1737013128115

> <r_i_glide_energy>
-49.8426756858826

> <r_i_glide_einternal>
7.14283561706543

> <i_i_glide_confnum>
125

> <i_i_glide_posenum>
133

> <r_i_glide_eff_state_penalty>
0.0293

> <r_lp_tautomer_probability>
1

> <s_m_subgroup_title>
glide-dock_SP_top1262_2_pv

> <s_m_subgroupid>
glide-dock_SP_top1262_2_pv

> <b_m_subgroup_collapsed>
0

$$$$
O=P(C(Cl)(P(O[Na])(O[Na])=O)Cl)(OP(OC[C@H]1O[C@@H](N2C=NC3=C(NCCSC)N=C(SCCC(F...
                    3D
 Schrodinger Suite 2021-3.
  0  0  0     0  0            999 V3000
M  V30 BEGIN CTAB
M  V30 COUNTS 65 67 0 0 0
M  V30 BEGIN ATOM
M  V30 1 O  26.6913 45.1503 94.0328 0
M  V30 2 P  25.5259 46.0242 94.5255 0
M  V30 3 O  25.5331 47.4604 93.9594 0 CHG=-1
M  V30 4 O  25.2832 45.9519 96.0457 0 CHG=-1
M  V30 5 C  23.9503 45.2225 93.7444 0
M  V30 6 Cl 24.1632 45.3005 91.9725 0
M  V30 7 Cl 22.6091 46.3557 94.1024 0
M  V30 8 P  23.2782 43.4920 94.1583 0
M  V30 9 O  23.4362 43.2042 95.6417 0
M  V30 10 O  21.9374 43.3074 93.4733 0 CHG=-1
M  V30 11 O  24.4003 42.5171 93.3210 0
M  V30 12 P  24.5148 41.4311 92.0051 0
M  V30 13 O  25.8090 40.6626 92.1626 0
M  V30 14 O  23.1737 40.7417 91.8406 0 CHG=-1
M  V30 15 O  24.7320 42.5429 90.7013 0
M  V30 16 C  23.6639 42.6944 89.7753 0
M  V30 17 C  24.0883 43.6656 88.6548 0 CFG=1
M  V30 18 O  25.1764 43.0875 87.9439 0
M  V30 19 C  25.1376 43.4358 86.6007 0 CFG=2
M  V30 20 C  23.6739 43.6557 86.2157 0 CFG=2
M  V30 21 O  23.6830 44.6861 85.2444 0
M  V30 22 C  23.0119 43.9286 87.5800 0 CFG=2
M  V30 23 O  22.4048 45.2068 87.6999 0
M  V30 24 N  25.8413 42.4444 85.8151 0
M  V30 25 C  27.0210 42.6128 85.1109 0
M  V30 26 N  27.4369 41.5545 84.4615 0
M  V30 27 C  25.4860 41.1247 85.5997 0
M  V30 28 C  26.4970 40.6044 84.7571 0
M  V30 29 N  24.4291 40.4393 86.0603 0
M  V30 30 C  24.4042 39.1436 85.6467 0
M  V30 31 S  23.0887 38.1130 86.2224 0
M  V30 32 C  21.7781 39.1631 86.9245 0
M  V30 33 C  20.7388 39.6910 85.9133 0
M  V30 34 C  19.8682 38.6070 85.2439 0
M  V30 35 F  18.9153 39.1568 84.4922 0
M  V30 36 F  20.5753 37.8059 84.4477 0
M  V30 37 F  19.2628 37.8383 86.1498 0
M  V30 38 N  25.3046 38.5317 84.8382 0
M  V30 39 C  26.3609 39.2594 84.3758 0
M  V30 40 N  27.2898 38.6866 83.4902 0
M  V30 41 C  27.3126 37.2401 83.2980 0
M  V30 42 C  26.1677 36.7294 82.4035 0
M  V30 43 S  25.5964 35.0677 82.8435 0
M  V30 44 C  23.8023 35.2813 82.6659 0
M  V30 45 H  22.7887 43.0841 90.2974 0
M  V30 46 H  23.3865 41.7294 89.3513 0
M  V30 47 H  24.4354 44.5951 89.1082 0
M  V30 48 H  25.7156 44.3616 86.5134 0
M  V30 49 H  23.2520 42.7463 85.7914 0
M  V30 50 H  22.7830 44.8717 84.9268 0
M  V30 51 H  22.2200 43.1862 87.7057 0
M  V30 52 H  21.5494 45.1916 87.2404 0
M  V30 53 H  27.5118 43.5757 85.1116 0
M  V30 54 H  21.2700 38.5825 87.6951 0
M  V30 55 H  22.2450 39.9967 87.4516 0
M  V30 56 H  20.0817 40.3972 86.4250 0
M  V30 57 H  21.2503 40.2685 85.1415 0
M  V30 58 H  28.1840 39.1553 83.5485 0
M  V30 59 H  27.2592 36.7670 84.2811 0
M  V30 60 H  28.2744 36.9431 82.8793 0
M  V30 61 H  26.4833 36.7367 81.3611 0
M  V30 62 H  25.3118 37.3997 82.4444 0
M  V30 63 H  23.2826 34.3553 82.9148 0
M  V30 64 H  23.5486 35.5557 81.6433 0
M  V30 65 H  23.4470 36.0659 83.3357 0
M  V30 END ATOM
M  V30 BEGIN BOND
M  V30 1 2 1 2
M  V30 2 1 2 3
M  V30 3 1 2 4
M  V30 4 1 2 5
M  V30 5 1 5 6
M  V30 6 1 5 7
M  V30 7 1 5 8
M  V30 8 2 8 9
M  V30 9 1 8 10
M  V30 10 1 8 11
M  V30 11 1 11 12
M  V30 12 2 12 13
M  V30 13 1 12 14
M  V30 14 1 12 15
M  V30 15 1 15 16
M  V30 16 1 16 17
M  V30 17 1 16 45
M  V30 18 1 16 46
M  V30 19 1 17 18
M  V30 20 1 17 22
M  V30 21 1 17 47
M  V30 22 1 18 19
M  V30 23 1 19 20
M  V30 24 1 19 24
M  V30 25 1 19 48
M  V30 26 1 20 21
M  V30 27 1 20 22
M  V30 28 1 20 49
M  V30 29 1 21 50
M  V30 30 1 22 23
M  V30 31 1 22 51
M  V30 32 1 23 52
M  V30 33 1 24 25
M  V30 34 1 24 27
M  V30 35 2 25 26
M  V30 36 1 25 53
M  V30 37 1 26 28
M  V30 38 2 27 28
M  V30 39 1 27 29
M  V30 40 1 28 39
M  V30 41 2 29 30
M  V30 42 1 30 31
M  V30 43 1 30 38
M  V30 44 1 31 32
M  V30 45 1 32 33
M  V30 46 1 32 54
M  V30 47 1 32 55
M  V30 48 1 33 34
M  V30 49 1 33 56
M  V30 50 1 33 57
M  V30 51 1 34 35
M  V30 52 1 34 36
M  V30 53 1 34 37
M  V30 54 2 38 39
M  V30 55 1 39 40
M  V30 56 1 40 41
M  V30 57 1 40 58
M  V30 58 1 41 42
M  V30 59 1 41 59
M  V30 60 1 41 60
M  V30 61 1 42 43
M  V30 62 1 42 61
M  V30 63 1 42 62
M  V30 64 1 43 44
M  V30 65 1 44 63
M  V30 66 1 44 64
M  V30 67 1 44 65
M  V30 END BOND
M  V30 END CTAB
M  END
> <s_m_entry_id>
1749

> <s_m_entry_name>
result.361

> <s_m_Source_Path>
D:\OneDrive - zju.edu.cn\DOC\A-Finished\LCK_VS\Planet\LCK-8617

> <s_m_Source_File>
glide-dock_SP_top1262_2_pv.maegz

> <i_m_Source_File_Index>
1749

> <PLANET_affinity>
7.38

> <i_lp_mmshare_version>
54117

> <i_f3d_flags>
0

> <s_epik_input>
Tz1QKFtPSF0pKFtPSF0pQyhDbCkoQ2wpW1BAQF0oPU8pKFtPSF0pT1tQQEBdKD1PKShbT0hdKU9bQ0gyXVtDQEhdMU9bQ0BIXShbQ0BIXShbT0hdKVtDQEBIXTFbT0hdKW4yW2NIXW5jKGMyMyljKFtOSF1bQ0gyXVtDSDJdU1tDSDNdKW5jKG4zKVNbQ0gyXVtDSDJdQyhGKShGKUY=

> <s_epik_cmdline>
J2VwaWtfcHl0aG9uJywgJy1waCcsICc3LjAnLCAnLXRuJywgJzgnLCAnLW1hJywgJzUwMCcsICctaW1hZScsICc8aW5maWxlLm1hZT4nLCAnLW9tYWUnLCAnPG91dGZpbGUubWFlPic=

> <r_epik_Ionization_Penalty>
  0.0180

> <r_epik_Ionization_Penalty_Charging>
  0.0179

> <r_epik_Ionization_Penalty_Neutral>
  0.0001

> <r_epik_State_Penalty>
  0.0140

> <r_epik_Charging_Adjusted_Penalty>
0.0318969

> <i_epik_Tot_Q>
-4

> <i_epik_Tot_abs_Q>
4

> <s_epik_Chemistry_Notes>
This compound contains an acetal/aminal-like group ( X-CH(R)-Y where X, Y are N, S, or O) that may be acid/base labile, releasing an aldehyde.

> <s_lp_Force_Field>
S-OPLS

> <r_lp_Energy>
26.6437

> <b_lp_Chiralities_Consistent>
1

> <s_lp_Variant>
O=P(C(Cl)(P(O[Na])(O[Na])=O)Cl)(OP(OC[C@H]1O[C@@H](N2C=NC3=C(NCCSC)N=C(SCCC(F...-1

> <s_i_glide_gridfile>
glide-grid_1

> <i_i_glide_lignum>
2128

> <i_i_glide_rotatable_bonds>
18

> <r_i_docking_score>
-7.12097725166029

> <r_i_glide_ligand_efficiency>
-0.161840392083188

> <r_i_glide_ligand_efficiency_sa>
-0.571352958058699

> <r_i_glide_ligand_efficiency_ln>
-1.48843958884385

> <r_i_glide_gscore>
-7.13497725166029

> <r_i_glide_lipo>
-1.77089468412027

> <r_i_glide_hbond>
-0.309706210051175

> <r_i_glide_metal>
0

> <r_i_glide_rewards>
-0.791540358819618

> <r_i_glide_evdw>
-40.6185569763184

> <r_i_glide_ecoul>
-16.6649913787842

> <r_i_glide_erotb>
0.274680255844443

> <r_i_glide_esite>
-0.00683969888012662

> <r_i_glide_emodel>
-80.7628611230169

> <r_i_glide_energy>
-57.2835483551025

> <r_i_glide_einternal>
14.2772731781006

> <i_i_glide_confnum>
867

> <i_i_glide_posenum>
88

> <r_i_glide_eff_state_penalty>
0.014

> <r_lp_tautomer_probability>
0.999997

> <s_m_subgroup_title>
glide-dock_SP_top1262_2_pv

> <s_m_subgroupid>
glide-dock_SP_top1262_2_pv

> <b_m_subgroup_collapsed>
0

$$$$
O=C(C1=C(NC2=CC=CC=C2C(O)=O)C3=CC(OC(F)(F)F)=CC=C3N=C1)OCC
                    3D
 Schrodinger Suite 2021-3.
  0  0  0     0  0            999 V3000
M  V30 BEGIN CTAB
M  V30 COUNTS 44 46 0 0 0
M  V30 BEGIN ATOM
M  V30 1 F  21.6898 36.3487 87.2348 0
M  V30 2 C  20.9646 36.9625 86.2982 0
M  V30 3 F  21.2330 38.2682 86.2679 0
M  V30 4 F  19.6832 36.8207 86.6292 0
M  V30 5 O  21.1355 36.3585 85.0157 0
M  V30 6 C  22.3876 36.2881 84.4334 0
M  V30 7 C  23.5466 36.8934 84.9403 0
M  V30 8 C  22.4712 35.5567 83.2549 0
M  V30 9 C  23.6839 35.3547 82.6103 0
M  V30 10 C  24.8594 35.9559 83.1065 0
M  V30 11 C  24.8000 36.7909 84.2601 0
M  V30 12 N  26.0136 35.7239 82.4427 0
M  V30 13 C  27.1333 36.3502 82.8568 0
M  V30 14 C  27.1993 37.2484 83.9309 0
M  V30 15 C  28.5158 37.9421 84.2286 0
M  V30 16 O  28.6884 38.7425 85.1499 0
M  V30 17 O  29.5042 37.6299 83.3396 0
M  V30 18 C  30.7962 38.2347 83.4047 0
M  V30 19 C  31.6997 37.5565 84.4427 0
M  V30 20 C  26.0005 37.4794 84.6579 0
M  V30 21 N  25.9838 38.3727 85.7484 0
M  V30 22 C  25.1794 39.4940 86.0392 0
M  V30 23 C  24.3482 39.9863 85.0197 0
M  V30 24 C  23.5260 41.0876 85.2240 0
M  V30 25 C  23.5278 41.7255 86.4547 0
M  V30 26 C  24.3582 41.2651 87.4726 0
M  V30 27 C  25.2125 40.1493 87.3090 0
M  V30 28 C  26.1004 39.7210 88.4776 0
M  V30 29 O  26.0180 40.3489 89.5632 0 CHG=-1
M  V30 30 O  26.8921 38.7571 88.3557 0
M  V30 31 H  23.4999 37.4708 85.8485 0
M  V30 32 H  21.5821 35.0995 82.8463 0
M  V30 33 H  23.7187 34.7548 81.7120 0
M  V30 34 H  27.9988 36.1104 82.2531 0
M  V30 35 H  31.2561 38.1460 82.4202 0
M  V30 36 H  30.7116 39.3047 83.6084 0
M  V30 37 H  32.6834 38.0257 84.4639 0
M  V30 38 H  31.2755 37.6234 85.4456 0
M  V30 39 H  31.8400 36.5020 84.2066 0
M  V30 40 H  26.7520 38.2763 86.4082 0
M  V30 41 H  24.3303 39.5210 84.0445 0
M  V30 42 H  22.8897 41.4491 84.4283 0
M  V30 43 H  22.8899 42.5835 86.6179 0
M  V30 44 H  24.3279 41.8089 88.4060 0
M  V30 END ATOM
M  V30 BEGIN BOND
M  V30 1 1 1 2
M  V30 2 1 2 3
M  V30 3 1 2 4
M  V30 4 1 2 5
M  V30 5 1 5 6
M  V30 6 2 6 7
M  V30 7 1 6 8
M  V30 8 1 7 11
M  V30 9 1 7 31
M  V30 10 2 8 9
M  V30 11 1 8 32
M  V30 12 1 9 10
M  V30 13 1 9 33
M  V30 14 2 10 11
M  V30 15 1 10 12
M  V30 16 1 11 20
M  V30 17 2 12 13
M  V30 18 1 13 14
M  V30 19 1 13 34
M  V30 20 1 14 15
M  V30 21 2 14 20
M  V30 22 2 15 16
M  V30 23 1 15 17
M  V30 24 1 17 18
M  V30 25 1 18 19
M  V30 26 1 18 35
M  V30 27 1 18 36
M  V30 28 1 19 37
M  V30 29 1 19 38
M  V30 30 1 19 39
M  V30 31 1 20 21
M  V30 32 1 21 22
M  V30 33 1 21 40
M  V30 34 2 22 23
M  V30 35 1 22 27
M  V30 36 1 23 24
M  V30 37 1 23 41
M  V30 38 2 24 25
M  V30 39 1 24 42
M  V30 40 1 25 26
M  V30 41 1 25 43
M  V30 42 2 26 27
M  V30 43 1 26 44
M  V30 44 1 27 28
M  V30 45 1 28 29
M  V30 46 2 28 30
M  V30 END BOND
M  V30 END CTAB
M  END
> <s_m_entry_id>
1752

> <s_m_entry_name>
result.1628

> <s_m_Source_Path>
D:\OneDrive - zju.edu.cn\DOC\A-Finished\LCK_VS\Planet\LCK-8617

> <s_m_Source_File>
glide-dock_SP_top1262_2_pv.maegz

> <i_m_Source_File_Index>
1752

> <PLANET_affinity>
7.653

> <i_lp_mmshare_version>
54117

> <i_f3d_flags>
0

> <s_epik_input>
RkMoRikoRilPYyhbY0hdW2NIXTEpW2NIXWMoYzEyKWMoYyhbY0hdbjIpQyg9TylPW0NIMl1bQ0gzXSlbTkhdYzNbY0hdW2NIXVtjSF1bY0hdYzNDKD1PKVtPSF0=

> <s_epik_cmdline>
J2VwaWtfcHl0aG9uJywgJy1waCcsICc3LjAnLCAnLXRuJywgJzgnLCAnLW1hJywgJzUwMCcsICctaW1hZScsICc8aW5maWxlLm1hZT4nLCAnLW9tYWUnLCAnPG91dGZpbGUubWFlPic=

> <r_epik_Ionization_Penalty>
  0.0060

> <r_epik_Ionization_Penalty_Charging>
  0.0013

> <r_epik_Ionization_Penalty_Neutral>
  0.0047

> <r_epik_State_Penalty>
  0.0000

> <r_epik_Charging_Adjusted_Penalty>
0.00132493

> <i_epik_Tot_Q>
-1

> <i_epik_Tot_abs_Q>
1

> <s_epik_Chemistry_Notes>
This compound has an ester and may undergo hydrolysis at high or low pH.

> <s_lp_Force_Field>
S-OPLS

> <r_lp_Energy>
53.4918

> <b_lp_Chiralities_Consistent>
1

> <s_lp_Variant>
O=C(C1=C(NC2=CC=CC=C2C(O)=O)C3=CC(OC(F)(F)F)=CC=C3N=C1)OCC-1

> <s_i_glide_gridfile>
glide-grid_1

> <i_i_glide_lignum>
1725

> <i_i_glide_rotatable_bonds>
8

> <r_i_docking_score>
-7.12051278193895

> <r_i_glide_ligand_efficiency>
-0.237350426064632

> <r_i_glide_ligand_efficiency_sa>
-0.73750295833389

> <r_i_glide_ligand_efficiency_ln>
-1.61785808825729

> <r_i_glide_gscore>
-7.12051278193895

> <r_i_glide_lipo>
-2.43691705846541

> <r_i_glide_hbond>
-0.24232804593812

> <r_i_glide_metal>
0

> <r_i_glide_rewards>
-2.81607362574658

> <r_i_glide_evdw>
-38.0582733154297

> <r_i_glide_ecoul>
-1.898646235466

> <r_i_glide_erotb>
0.56251654930255

> <r_i_glide_esite>
0

> <r_i_glide_emodel>
-57.9978929218757

> <r_i_glide_energy>
-39.9569195508957

> <r_i_glide_einternal>
2.07441091537476

> <i_i_glide_confnum>
4

> <i_i_glide_posenum>
174

> <r_i_glide_eff_state_penalty>
0

> <r_lp_tautomer_probability>
1

> <s_m_subgroup_title>
glide-dock_SP_top1262_2_pv

> <s_m_subgroupid>
glide-dock_SP_top1262_2_pv

> <b_m_subgroup_collapsed>
0

$$$$
C1(C2=CC=C(OC[C@@H](N3C4=CC=CC=C4N=C3C5=CC=CC=C5)C6CCNCC6)C=C2)=NC7=CC=CC=C7N...
                    3D
 Schrodinger Suite 2021-3.
  0  0  0     0  0            999 V3000
M  V30 BEGIN CTAB
M  V30 COUNTS 85 92 0 0 0
M  V30 BEGIN ATOM
M  V30 1 C  18.5201 38.2128 85.6791 0
M  V30 2 C  17.5839 37.9118 86.6609 0
M  V30 3 C  17.9017 36.9893 87.6508 0
M  V30 4 C  19.1416 36.3569 87.6681 0
M  V30 5 C  20.0835 36.6646 86.6929 0
M  V30 6 C  19.7757 37.6001 85.6982 0
M  V30 7 C  20.7667 37.9408 84.5954 0
M  V30 8 N  22.1834 37.8337 84.9577 0
M  V30 9 C  23.0519 36.8895 84.4424 0
M  V30 10 C  24.3043 37.2166 85.0019 0
M  V30 11 C  22.9014 35.8394 83.5248 0
M  V30 12 C  24.0611 35.1606 83.1412 0
M  V30 13 C  25.3131 35.4987 83.6610 0
M  V30 14 C  25.4522 36.5164 84.6077 0
M  V30 15 C  22.9199 38.6073 85.8509 0
M  V30 16 N  24.1835 38.2434 85.8941 0
M  V30 17 C  22.3815 39.6912 86.7581 0
M  V30 18 C  21.3678 40.5852 86.3878 0
M  V30 19 C  20.8756 41.5183 87.2997 0
M  V30 20 C  21.3902 41.5779 88.6035 0
M  V30 21 C  22.4257 40.7216 88.9592 0
M  V30 22 C  22.9268 39.8026 88.0428 0
M  V30 23 O  20.9349 42.4305 89.5897 0
M  V30 24 C  20.0186 43.4741 89.2525 0
M  V30 25 C  19.5962 44.4071 90.4456 0 CFG=2
M  V30 26 C  20.0796 45.9133 90.4037 0
M  V30 27 C  19.9013 46.6043 89.0214 0
M  V30 28 C  20.3501 48.0777 88.9842 0
M  V30 29 N  19.6147 48.8612 90.0853 0 CHG=1
M  V30 30 C  19.8492 48.2511 91.4811 0
M  V30 31 C  19.3678 46.7869 91.4685 0
M  V30 32 N  19.9033 43.7622 91.7495 0
M  V30 33 C  18.9972 43.1876 92.6403 0
M  V30 34 N  19.7295 42.5707 93.6234 0 CHG=1
M  V30 35 C  21.0817 42.6967 93.3710 0
M  V30 36 C  21.2045 43.4981 92.2223 0
M  V30 37 C  22.1945 42.1575 94.0255 0
M  V30 38 C  23.4500 42.4885 93.5156 0
M  V30 39 C  23.5859 43.3036 92.3949 0
M  V30 40 C  22.4763 43.8174 91.7178 0
M  V30 41 C  17.4979 43.1006 92.5725 0
M  V30 42 C  16.8832 41.8863 92.9163 0
M  V30 43 C  15.5016 41.7331 92.8118 0
M  V30 44 C  14.7178 42.8060 92.3977 0
M  V30 45 C  15.3087 44.0300 92.0930 0
M  V30 46 C  16.6915 44.1771 92.1826 0
M  V30 47 H  18.2698 38.9285 84.9108 0
M  V30 48 H  16.6139 38.3912 86.6539 0
M  V30 49 H  17.1751 36.7609 88.4160 0
M  V30 50 H  19.3718 35.6332 88.4362 0
M  V30 51 H  21.0428 36.1690 86.7107 0
M  V30 52 H  20.5980 38.9382 84.1919 0
M  V30 53 H  20.5626 37.2660 83.7618 0
M  V30 54 H  21.9514 35.5744 83.0857 0
M  V30 55 H  23.9787 34.3593 82.4199 0
M  V30 56 H  26.1874 34.9531 83.3341 0
M  V30 57 H  26.4206 36.7646 85.0172 0
M  V30 58 H  20.9513 40.5777 85.3960 0
M  V30 59 H  20.0820 42.1763 86.9819 0
M  V30 60 H  22.8449 40.7664 89.9545 0
M  V30 61 H  23.7385 39.1576 88.3430 0
M  V30 62 H  19.1134 43.0176 88.8449 0
M  V30 63 H  20.4807 44.0321 88.4441 0
M  V30 64 H  18.5132 44.4590 90.3481 0
M  V30 65 H  21.1460 45.9632 90.6219 0
M  V30 66 H  20.4822 46.0906 88.2608 0
M  V30 67 H  18.8654 46.5295 88.6854 0
M  V30 68 H  21.4200 48.1977 89.1618 0
M  V30 69 H  20.0881 48.5560 88.0359 0
M  V30 70 H  19.9065 49.8301 90.0680 0
M  V30 71 H  20.9171 48.3421 91.6944 0
M  V30 72 H  19.2845 48.8708 92.1856 0
M  V30 73 H  18.2919 46.7697 91.2990 0
M  V30 74 H  19.5010 46.3534 92.4601 0
M  V30 75 H  22.1049 41.4852 94.8614 0
M  V30 76 H  24.3374 42.0903 93.9897 0
M  V30 77 H  24.5794 43.5184 92.0232 0
M  V30 78 H  22.6140 44.3886 90.8131 0
M  V30 79 H  17.4629 41.0355 93.2390 0
M  V30 80 H  15.0420 40.7789 93.0301 0
M  V30 81 H  13.6458 42.6828 92.3180 0
M  V30 82 H  14.6902 44.8615 91.7839 0
M  V30 83 H  17.1202 45.1373 91.9562 0
M  V30 84 H  18.6249 48.8532 89.8693 0
M  V30 85 H  19.2862 42.0872 94.3913 0
M  V30 END ATOM
M  V30 BEGIN BOND
M  V30 1 2 1 2
M  V30 2 1 1 6
M  V30 3 1 1 47
M  V30 4 1 2 3
M  V30 5 1 2 48
M  V30 6 2 3 4
M  V30 7 1 3 49
M  V30 8 1 4 5
M  V30 9 1 4 50
M  V30 10 2 5 6
M  V30 11 1 5 51
M  V30 12 1 6 7
M  V30 13 1 7 8
M  V30 14 1 7 52
M  V30 15 1 7 53
M  V30 16 1 8 9
M  V30 17 1 8 15
M  V30 18 1 9 10
M  V30 19 2 9 11
M  V30 20 1 10 16
M  V30 21 2 10 14
M  V30 22 1 11 12
M  V30 23 1 11 54
M  V30 24 2 12 13
M  V30 25 1 12 55
M  V30 26 1 13 14
M  V30 27 1 13 56
M  V30 28 1 14 57
M  V30 29 2 15 16
M  V30 30 1 15 17
M  V30 31 2 17 18
M  V30 32 1 17 22
M  V30 33 1 18 19
M  V30 34 1 18 58
M  V30 35 2 19 20
M  V30 36 1 19 59
M  V30 37 1 20 21
M  V30 38 1 20 23
M  V30 39 2 21 22
M  V30 40 1 21 60
M  V30 41 1 22 61
M  V30 42 1 23 24
M  V30 43 1 24 25
M  V30 44 1 24 62
M  V30 45 1 24 63
M  V30 46 1 25 26
M  V30 47 1 25 32
M  V30 48 1 25 64
M  V30 49 1 26 27
M  V30 50 1 26 31
M  V30 51 1 26 65
M  V30 52 1 27 28
M  V30 53 1 27 66
M  V30 54 1 27 67
M  V30 55 1 28 29
M  V30 56 1 28 68
M  V30 57 1 28 69
M  V30 58 1 29 30
M  V30 59 1 29 70
M  V30 60 1 29 84
M  V30 61 1 30 31
M  V30 62 1 30 71
M  V30 63 1 30 72
M  V30 64 1 31 73
M  V30 65 1 31 74
M  V30 66 1 32 33
M  V30 67 1 32 36
M  V30 68 2 33 34
M  V30 69 1 33 41
M  V30 70 1 34 35
M  V30 71 1 34 85
M  V30 72 2 35 36
M  V30 73 1 35 37
M  V30 74 1 36 40
M  V30 75 2 37 38
M  V30 76 1 37 75
M  V30 77 1 38 39
M  V30 78 1 38 76
M  V30 79 2 39 40
M  V30 80 1 39 77
M  V30 81 1 40 78
M  V30 82 2 41 42
M  V30 83 1 41 46
M  V30 84 1 42 43
M  V30 85 1 42 79
M  V30 86 2 43 44
M  V30 87 1 43 80
M  V30 88 1 44 45
M  V30 89 1 44 81
M  V30 90 2 45 46
M  V30 91 1 45 82
M  V30 92 1 46 83
M  V30 END BOND
M  V30 END CTAB
M  END
> <s_m_entry_id>
1754

> <s_m_entry_name>
result.3325

> <s_m_Source_Path>
D:\OneDrive - zju.edu.cn\DOC\A-Finished\LCK_VS\Planet\LCK-8617

> <s_m_Source_File>
glide-dock_SP_top1262_2_pv.maegz

> <i_m_Source_File_Index>
1754

> <PLANET_affinity>
7.956

> <i_lp_mmshare_version>
54117

> <i_f3d_flags>
0

> <s_epik_input>
W2NIXTFbY0hdW2NIXVtjSF1bY0hdYzFbQ0gyXW4yYyhuYyhjMjMpW2NIXVtjSF1bY0hdW2NIXTMpLWM0W2NIXVtjSF1jKFtjSF1bY0hdNClPW0NIMl1bQ0BIXShbQ0hdNVtDSDJdW0NIMl1bTkhdW0NIMl1bQ0gyXTUpbihjKGM2NylbY0hdW2NIXVtjSF1bY0hdNyljKG42KS1jOFtjSF1bY0hdW2NIXVtjSF1bY0hdOA==

> <s_epik_cmdline>
J2VwaWtfcHl0aG9uJywgJy1waCcsICc3LjAnLCAnLXRuJywgJzgnLCAnLW1hJywgJzUwMCcsICctaW1hZScsICc8aW5maWxlLm1hZT4nLCAnLW9tYWUnLCAnPG91dGZpbGUubWFlPic=

> <r_epik_Ionization_Penalty>
  0.7942

> <r_epik_Ionization_Penalty_Charging>
  0.5613

> <r_epik_Ionization_Penalty_Neutral>
  0.2328

> <r_epik_State_Penalty>
  0.7954

> <r_epik_Charging_Adjusted_Penalty>
1.35671

> <i_epik_Tot_Q>
2

> <i_epik_Tot_abs_Q>
2

> <s_lp_Force_Field>
S-OPLS

> <r_lp_Energy>
81.2866

> <b_lp_Chiralities_Consistent>
1

> <s_lp_Variant>
C1(C2=CC=C(OC[C@@H](N3C4=CC=CC=C4N=C3C5=CC=CC=C5)C6CCNCC6)C=C2)=NC7=CC=CC=C7N...-2

> <s_i_glide_gridfile>
glide-grid_1

> <i_i_glide_lignum>
1347

> <i_i_glide_rotatable_bonds>
9

> <r_i_docking_score>
-7.11994703363008

> <r_i_glide_ligand_efficiency>
-0.154781457252828

> <r_i_glide_ligand_efficiency_sa>
-0.554589370174716

> <r_i_glide_ligand_efficiency_ln>
-1.47452387721461

> <r_i_glide_gscore>
-7.91534703363008

> <r_i_glide_lipo>
-3.79003592555861

> <r_i_glide_hbond>
-0.0225748226319966

> <r_i_glide_metal>
0

> <r_i_glide_rewards>
-0.418342953543432

> <r_i_glide_evdw>
-51.1417694091797

> <r_i_glide_ecoul>
-9.29689598083496

> <r_i_glide_erotb>
0.394523056135238

> <r_i_glide_esite>
-0.127293520447043

> <r_i_glide_emodel>
-93.6028338715655

> <r_i_glide_energy>
-60.4386653900146

> <r_i_glide_einternal>
8.51084518432617

> <i_i_glide_confnum>
202

> <i_i_glide_posenum>
189

> <r_i_glide_eff_state_penalty>
0.7954

> <r_lp_tautomer_probability>
1

> <s_m_subgroup_title>
glide-dock_SP_top1262_2_pv

> <s_m_subgroupid>
glide-dock_SP_top1262_2_pv

> <b_m_subgroup_collapsed>
0

$$$$
O=C1N(C)C2=CN=C(NC3=CC=C(C(N4CCC(N5CCN(C)CC5)CC4)=O)C=C3OCC)N=C2N(S(=O)(C)=O)...
                    3D
 Schrodinger Suite 2021-3.
  0  0  0     0  0            999 V3000
M  V30 BEGIN CTAB
M  V30 COUNTS 87 92 0 0 0
M  V30 BEGIN ATOM
M  V30 1 C  22.2981 46.3172 92.0019 0
M  V30 2 C  23.2007 47.2510 92.4954 0
M  V30 3 C  24.0997 46.8798 93.4850 0
M  V30 4 C  24.0882 45.5800 93.9728 0
M  V30 5 C  23.1770 44.6203 93.4840 0
M  V30 6 C  23.2078 43.2692 94.1988 0
M  V30 7 O  23.6780 43.2424 95.3455 0
M  V30 8 N  22.6939 42.1568 93.5813 0
M  V30 9 C  22.6892 40.9453 94.4320 0
M  V30 10 C  22.2604 44.9963 92.4691 0
M  V30 11 N  21.3636 44.0580 91.9383 0
M  V30 12 S  19.6071 44.4022 91.9586 0
M  V30 13 O  19.3740 45.6257 91.1890 0
M  V30 14 O  18.8986 43.1570 91.6439 0
M  V30 15 C  19.2953 44.7837 93.7739 0
M  V30 16 C  21.8087 42.8564 91.3793 0
M  V30 17 C  22.5660 41.9626 92.1796 0
M  V30 18 N  21.5216 42.5769 90.0739 0
M  V30 19 C  21.9403 41.4008 89.5544 0
M  V30 20 N  22.6101 40.4618 90.2572 0
M  V30 21 C  22.8839 40.7491 91.5519 0
M  V30 22 N  21.6725 41.1887 88.1927 0
M  V30 23 C  21.9252 40.1077 87.3169 0
M  V30 24 C  22.0646 38.7940 87.7801 0
M  V30 25 C  22.3688 37.7472 86.9148 0
M  V30 26 C  22.5693 37.9910 85.5603 0
M  V30 27 C  22.3621 39.2902 85.0718 0
M  V30 28 C  22.0400 40.3555 85.9358 0
M  V30 29 O  21.8429 41.6587 85.5096 0
M  V30 30 C  22.1582 42.0598 84.1764 0
M  V30 31 C  23.6784 42.1063 83.9418 0
M  V30 32 C  23.0081 36.8580 84.6541 0
M  V30 33 O  22.2309 35.9141 84.5029 0
M  V30 34 N  24.2331 36.9225 84.0467 0
M  V30 35 C  24.6294 35.8613 83.0854 0
M  V30 36 C  26.1399 35.5515 83.2353 0
M  V30 37 C  27.0298 36.8137 83.1624 0
M  V30 38 C  26.5441 37.7765 84.2635 0
M  V30 39 C  25.0612 38.1481 84.1436 0
M  V30 40 N  28.5402 36.4580 83.3636 0 CHG=1
M  V30 41 C  29.4389 37.7071 83.6179 0
M  V30 42 C  30.9371 37.3250 83.7001 0
M  V30 43 N  31.3683 36.5846 82.5119 0 CFG=2
M  V30 44 C  32.7953 36.2855 82.5930 0
M  V30 45 C  30.5995 35.3406 82.4309 0
M  V30 46 C  29.1198 35.6741 82.1550 0
M  V30 47 H  21.6282 46.6288 91.2117 0
M  V30 48 H  23.2076 48.2593 92.1046 0
M  V30 49 H  24.8069 47.5988 93.8712 0
M  V30 50 H  24.7990 45.3353 94.7490 0
M  V30 51 H  22.4831 41.1604 95.4809 0
M  V30 52 H  21.9221 40.2452 94.1007 0
M  V30 53 H  23.6566 40.4426 94.3878 0
M  V30 54 H  18.2353 45.0006 93.8978 0
M  V30 55 H  19.5782 43.9160 94.3679 0
M  V30 56 H  19.8890 45.6523 94.0519 0
M  V30 57 H  23.3816 39.9587 92.0917 0
M  V30 58 H  21.3251 42.0143 87.7185 0
M  V30 59 H  21.9399 38.5582 88.8210 0
M  V30 60 H  22.4822 36.7477 87.3150 0
M  V30 61 H  22.4725 39.4668 84.0138 0
M  V30 62 H  21.6554 41.4276 83.4437 0
M  V30 63 H  21.7472 43.0611 84.0339 0
M  V30 64 H  23.9034 42.3568 82.9045 0
M  V30 65 H  24.1430 42.8672 84.5733 0
M  V30 66 H  24.1646 41.1576 84.1621 0
M  V30 67 H  24.4259 36.2128 82.0742 0
M  V30 68 H  24.0994 34.9268 83.2786 0
M  V30 69 H  26.4351 34.8056 82.5005 0
M  V30 70 H  26.2919 35.0420 84.1871 0
M  V30 71 H  26.8817 37.2821 82.1896 0
M  V30 72 H  26.7265 37.3358 85.2463 0
M  V30 73 H  27.1160 38.7026 84.2748 0
M  V30 74 H  24.8960 38.7534 83.2521 0
M  V30 75 H  24.8667 38.7252 85.0504 0
M  V30 76 H  29.2310 38.4414 82.8436 0
M  V30 77 H  29.1509 38.1184 84.5838 0
M  V30 78 H  31.1383 36.7583 84.6084 0
M  V30 79 H  31.5275 38.2406 83.7802 0
M  V30 80 H  33.3814 37.2032 82.6449 0
M  V30 81 H  33.1236 35.7432 81.7037 0
M  V30 82 H  33.0376 35.6780 83.4662 0
M  V30 83 H  30.9924 34.7077 81.6394 0
M  V30 84 H  30.6999 34.7565 83.3480 0
M  V30 85 H  28.9973 36.2801 81.2556 0
M  V30 86 H  28.5487 34.7545 82.0431 0
M  V30 87 H  28.6324 35.8666 84.1758 0
M  V30 END ATOM
M  V30 BEGIN BOND
M  V30 1 2 1 2
M  V30 2 1 1 10
M  V30 3 1 1 47
M  V30 4 1 2 3
M  V30 5 1 2 48
M  V30 6 2 3 4
M  V30 7 1 3 49
M  V30 8 1 4 5
M  V30 9 1 4 50
M  V30 10 1 5 6
M  V30 11 2 5 10
M  V30 12 2 6 7
M  V30 13 1 6 8
M  V30 14 1 8 9
M  V30 15 1 8 17
M  V30 16 1 9 51
M  V30 17 1 9 52
M  V30 18 1 9 53
M  V30 19 1 10 11
M  V30 20 1 11 12
M  V30 21 1 11 16
M  V30 22 2 12 13
M  V30 23 2 12 14
M  V30 24 1 12 15
M  V30 25 1 15 54
M  V30 26 1 15 55
M  V30 27 1 15 56
M  V30 28 2 16 17
M  V30 29 1 16 18
M  V30 30 1 17 21
M  V30 31 2 18 19
M  V30 32 1 19 20
M  V30 33 1 19 22
M  V30 34 2 20 21
M  V30 35 1 21 57
M  V30 36 1 22 23
M  V30 37 1 22 58
M  V30 38 2 23 24
M  V30 39 1 23 28
M  V30 40 1 24 25
M  V30 41 1 24 59
M  V30 42 2 25 26
M  V30 43 1 25 60
M  V30 44 1 26 27
M  V30 45 1 26 32
M  V30 46 2 27 28
M  V30 47 1 27 61
M  V30 48 1 28 29
M  V30 49 1 29 30
M  V30 50 1 30 31
M  V30 51 1 30 62
M  V30 52 1 30 63
M  V30 53 1 31 64
M  V30 54 1 31 65
M  V30 55 1 31 66
M  V30 56 2 32 33
M  V30 57 1 32 34
M  V30 58 1 34 35
M  V30 59 1 34 39
M  V30 60 1 35 36
M  V30 61 1 35 67
M  V30 62 1 35 68
M  V30 63 1 36 37
M  V30 64 1 36 69
M  V30 65 1 36 70
M  V30 66 1 37 38
M  V30 67 1 37 40
M  V30 68 1 37 71
M  V30 69 1 38 39
M  V30 70 1 38 72
M  V30 71 1 38 73
M  V30 72 1 39 74
M  V30 73 1 39 75
M  V30 74 1 40 41
M  V30 75 1 40 46
M  V30 76 1 40 87
M  V30 77 1 41 42
M  V30 78 1 41 76
M  V30 79 1 41 77
M  V30 80 1 42 43
M  V30 81 1 42 78
M  V30 82 1 42 79
M  V30 83 1 43 44
M  V30 84 1 43 45
M  V30 85 1 44 80
M  V30 86 1 44 81
M  V30 87 1 44 82
M  V30 88 1 45 46
M  V30 89 1 45 83
M  V30 90 1 45 84
M  V30 91 1 46 85
M  V30 92 1 46 86
M  V30 END BOND
M  V30 END CTAB
M  END
> <s_m_entry_id>
1758

> <s_m_entry_name>
result.7680

> <s_m_Source_Path>
D:\OneDrive - zju.edu.cn\DOC\A-Finished\LCK_VS\Planet\LCK-8617

> <s_m_Source_File>
glide-dock_SP_top1262_2_pv.maegz

> <i_m_Source_File_Index>
1758

> <PLANET_affinity>
9.882

> <i_lp_mmshare_version>
54117

> <i_f3d_flags>
0

> <s_epik_input>
W2NIXTFbY0hdW2NIXVtjSF1jKGMxMilOKFMoPU8pKD1PKVtDSDNdKWMzYyhOKEMyPU8pW0NIM10pW2NIXW5jKG4zKVtOSF1jNFtjSF1bY0hdYyhbY0hdYzRPW0NIMl1bQ0gzXSlDKD1PKU41W0NIMl1bQ0gyXVtDSF0oW0NIMl1bQ0gyXTUpTjZbQ0gyXVtDSDJdTihbQ0gzXSlbQ0gyXVtDSDJdNg==

> <s_epik_cmdline>
J2VwaWtfcHl0aG9uJywgJy1waCcsICc3LjAnLCAnLXRuJywgJzgnLCAnLW1hJywgJzUwMCcsICctaW1hZScsICc8aW5maWxlLm1hZT4nLCAnLW9tYWUnLCAnPG91dGZpbGUubWFlPic=

> <r_epik_Ionization_Penalty>
  0.0040

> <r_epik_Ionization_Penalty_Charging>
  0.0022

> <r_epik_Ionization_Penalty_Neutral>
  0.0017

> <r_epik_State_Penalty>
  0.0393

> <r_epik_Charging_Adjusted_Penalty>
0.0415301

> <i_epik_Tot_Q>
1

> <i_epik_Tot_abs_Q>
1

> <s_lp_Force_Field>
S-OPLS

> <r_lp_Energy>
112.441

> <b_lp_Chiralities_Consistent>
1

> <s_lp_Variant>
O=C1N(C)C2=CN=C(NC3=CC=C(C(N4CCC(N5CCN(C)CC5)CC4)=O)C=C3OCC)N=C2N(S(=O)(C)=O)...-1

> <s_i_glide_gridfile>
glide-grid_1

> <i_i_glide_lignum>
281

> <i_i_glide_rotatable_bonds>
8

> <r_i_docking_score>
-7.11680916413663

> <r_i_glide_ligand_efficiency>
-0.154713242698622

> <r_i_glide_ligand_efficiency_sa>
-0.55434495416181

> <r_i_glide_ligand_efficiency_ln>
-1.47387403200231

> <r_i_glide_gscore>
-7.15610916413663

> <r_i_glide_lipo>
-2.58298307826291

> <r_i_glide_hbond>
-0.223812229425813

> <r_i_glide_metal>
0

> <r_i_glide_rewards>
-0.969055482555194

> <r_i_glide_evdw>
-45.777156829834

> <r_i_glide_ecoul>
-6.79749488830566

> <r_i_glide_erotb>
0.151079262645225

> <r_i_glide_esite>
-0.22285556180039

> <r_i_glide_emodel>
-76.4357445208257

> <r_i_glide_energy>
-52.5746517181396

> <r_i_glide_einternal>
4.20553827285767

> <i_i_glide_confnum>
200

> <i_i_glide_posenum>
41

> <r_i_glide_eff_state_penalty>
0.0393

> <r_lp_tautomer_probability>
1

> <s_m_subgroup_title>
glide-dock_SP_top1262_2_pv

> <s_m_subgroupid>
glide-dock_SP_top1262_2_pv

> <b_m_subgroup_collapsed>
0

$$$$
O=C1NC2=CC=CC=C2N=C1C3=CC(C(C)C)=CC=C3NC(C4=CC=CS4)=O
                    3D
 Schrodinger Suite 2021-3.
  0  0  0     0  0            999 V3000
M  V30 BEGIN CTAB
M  V30 COUNTS 47 50 0 0 0
M  V30 BEGIN ATOM
M  V30 1 C  26.6332 41.8065 86.9184 0
M  V30 2 C  26.0192 41.4318 88.1176 0
M  V30 3 C  25.9549 40.0850 88.4893 0
M  V30 4 C  26.5025 39.0992 87.6662 0
M  V30 5 C  27.1175 39.4677 86.4686 0
M  V30 6 C  27.1828 40.8218 86.0979 0
M  V30 7 N  27.6601 38.4639 85.6435 0
M  V30 8 C  28.2438 38.7741 84.5345 0
M  V30 9 C  28.3638 40.1886 84.0417 0
M  V30 10 O  28.8833 40.5349 82.9814 0
M  V30 11 N  27.8205 41.1127 84.8769 0
M  V30 12 C  28.7976 37.6786 83.7007 0
M  V30 13 C  30.1690 37.7141 83.3985 0
M  V30 14 C  30.7788 36.7000 82.6597 0
M  V30 15 C  32.2695 36.7956 82.3250 0
M  V30 16 C  32.4843 37.4022 80.9261 0
M  V30 17 C  33.0306 35.4651 82.4964 0
M  V30 18 C  30.0012 35.6281 82.2166 0
M  V30 19 C  28.6387 35.5743 82.4980 0
M  V30 20 C  28.0131 36.5878 83.2445 0
M  V30 21 N  26.6363 36.5519 83.5813 0
M  V30 22 C  25.6444 35.7140 83.2050 0
M  V30 23 O  25.7653 34.7568 82.4435 0
M  V30 24 C  24.3443 36.0388 83.7478 0
M  V30 25 C  23.1141 35.5733 83.2793 0
M  V30 26 C  22.0253 36.1199 83.9693 0
M  V30 27 C  22.4047 36.9268 85.0286 0
M  V30 28 S  24.1261 37.0507 85.1657 0
M  V30 29 H  26.6753 42.8476 86.6335 0
M  V30 30 H  25.5898 42.1880 88.7575 0
M  V30 31 H  25.4764 39.8045 89.4152 0
M  V30 32 H  26.4476 38.0587 87.9540 0
M  V30 33 H  27.8986 42.0692 84.5649 0
M  V30 34 H  30.7770 38.5386 83.7457 0
M  V30 35 H  32.7190 37.4824 83.0454 0
M  V30 36 H  31.9892 38.3707 80.8381 0
M  V30 37 H  33.5437 37.5572 80.7162 0
M  V30 38 H  32.0839 36.7565 80.1436 0
M  V30 39 H  32.8459 35.0252 83.4774 0
M  V30 40 H  32.7482 34.7307 81.7416 0
M  V30 41 H  34.1073 35.6180 82.4087 0
M  V30 42 H  30.4467 34.8282 81.6440 0
M  V30 43 H  28.0970 34.7234 82.1189 0
M  V30 44 H  26.3619 37.2853 84.2193 0
M  V30 45 H  23.0033 34.9045 82.4377 0
M  V30 46 H  20.9982 35.9296 83.7016 0
M  V30 47 H  21.7647 37.4545 85.7200 0
M  V30 END ATOM
M  V30 BEGIN BOND
M  V30 1 2 1 2
M  V30 2 1 1 6
M  V30 3 1 1 29
M  V30 4 1 2 3
M  V30 5 1 2 30
M  V30 6 2 3 4
M  V30 7 1 3 31
M  V30 8 1 4 5
M  V30 9 1 4 32
M  V30 10 2 5 6
M  V30 11 1 5 7
M  V30 12 1 6 11
M  V30 13 2 7 8
M  V30 14 1 8 9
M  V30 15 1 8 12
M  V30 16 2 9 10
M  V30 17 1 9 11
M  V30 18 1 11 33
M  V30 19 2 12 13
M  V30 20 1 12 20
M  V30 21 1 13 14
M  V30 22 1 13 34
M  V30 23 1 14 15
M  V30 24 2 14 18
M  V30 25 1 15 16
M  V30 26 1 15 17
M  V30 27 1 15 35
M  V30 28 1 16 36
M  V30 29 1 16 37
M  V30 30 1 16 38
M  V30 31 1 17 39
M  V30 32 1 17 40
M  V30 33 1 17 41
M  V30 34 1 18 19
M  V30 35 1 18 42
M  V30 36 2 19 20
M  V30 37 1 19 43
M  V30 38 1 20 21
M  V30 39 1 21 22
M  V30 40 1 21 44
M  V30 41 2 22 23
M  V30 42 1 22 24
M  V30 43 2 24 25
M  V30 44 1 24 28
M  V30 45 1 25 26
M  V30 46 1 25 45
M  V30 47 2 26 27
M  V30 48 1 26 46
M  V30 49 1 27 28
M  V30 50 1 27 47
M  V30 END BOND
M  V30 END CTAB
M  END
> <s_m_entry_id>
1760

> <s_m_entry_name>
result.4464

> <s_m_Source_Path>
D:\OneDrive - zju.edu.cn\DOC\A-Finished\LCK_VS\Planet\LCK-8617

> <s_m_Source_File>
glide-dock_SP_top1262_2_pv.maegz

> <i_m_Source_File_Index>
1760

> <PLANET_affinity>
7.102

> <i_lp_mmshare_version>
54117

> <i_f3d_flags>
0

> <s_epik_input>
W2NIXTFbY0hdW2NIXVtjSF1jKGMxMilbbkhdYyg9TyljKG4yKS1jM1tjSF1jKFtDSF0oW0NIM10pW0NIM10pW2NIXVtjSF1jM1tOSF1DKD1PKWM0W2NIXVtjSF1bY0hdczQ=

> <s_epik_cmdline>
J2VwaWtfcHl0aG9uJywgJy1waCcsICc3LjAnLCAnLXRuJywgJzgnLCAnLW1hJywgJzUwMCcsICctaW1hZScsICc8aW5maWxlLm1hZT4nLCAnLW9tYWUnLCAnPG91dGZpbGUubWFlPic=

> <r_epik_Ionization_Penalty>
  0.0080

> <r_epik_Ionization_Penalty_Charging>
  0.0080

> <r_epik_Ionization_Penalty_Neutral>
  0.0000

> <r_epik_State_Penalty>
  0.0063

> <r_epik_Charging_Adjusted_Penalty>
0.0142405

> <i_epik_Tot_Q>
0

> <i_epik_Tot_abs_Q>
0

> <s_lp_Force_Field>
S-OPLS

> <r_lp_Energy>
69.8106

> <b_lp_Chiralities_Consistent>
1

> <s_lp_Variant>
O=C1NC2=CC=CC=C2N=C1C3=CC(C(C)C)=CC=C3NC(C4=CC=CS4)=O-1

> <s_i_glide_gridfile>
glide-grid_1

> <i_i_glide_lignum>
2536

> <i_i_glide_rotatable_bonds>
5

> <r_i_docking_score>
-7.11590935589659

> <r_i_glide_ligand_efficiency>
-0.25413961985345

> <r_i_glide_ligand_efficiency_sa>
-0.771717566106485

> <r_i_glide_ligand_efficiency_ln>
-1.64256081151829

> <r_i_glide_gscore>
-7.12220935589659

> <r_i_glide_lipo>
-2.64443027993255

> <r_i_glide_hbond>
-0.608

> <r_i_glide_metal>
0

> <r_i_glide_rewards>
-1.27027239393939

> <r_i_glide_evdw>
-41.0048065185547

> <r_i_glide_ecoul>
-7.08892011642456

> <r_i_glide_erotb>
0.514071661366774

> <r_i_glide_esite>
0

> <r_i_glide_emodel>
-66.8961819980921

> <r_i_glide_energy>
-48.0937266349792

> <r_i_glide_einternal>
2.95462942123413

> <i_i_glide_confnum>
12

> <i_i_glide_posenum>
101

> <r_i_glide_eff_state_penalty>
0.0063

> <s_m_subgroup_title>
glide-dock_SP_top1262_2_pv

> <s_m_subgroupid>
glide-dock_SP_top1262_2_pv

> <b_m_subgroup_collapsed>
0

$$$$
FC(F)(F)CC(S1)=CC2=C1N=CN=C2NC3CCN(CC4=C(O)C=C(N(CC5=CNN=C5)C(C#N)=C6)C6=C4)CC3
                    3D
 Schrodinger Suite 2021-3.
  0  0  0     0  0            999 V3000
M  V30 BEGIN CTAB
M  V30 COUNTS 66 71 0 0 0
M  V30 BEGIN ATOM
M  V30 1 F  24.2686 35.5566 82.8797 0
M  V30 2 C  25.3575 36.0356 83.4812 0
M  V30 3 F  25.6829 35.1782 84.4435 0
M  V30 4 F  25.0209 37.1965 84.0443 0
M  V30 5 C  26.4988 36.1750 82.4643 0
M  V30 6 C  27.7837 36.7566 83.0275 0
M  V30 7 C  27.9910 37.9831 83.6435 0
M  V30 8 S  29.2902 35.8774 82.8435 0
M  V30 9 C  30.1931 37.1797 83.5757 0
M  V30 10 C  29.3563 38.2607 83.9816 0
M  V30 11 N  31.5211 37.1403 83.7035 0
M  V30 12 C  32.0580 38.2547 84.2517 0
M  V30 13 N  31.3974 39.3536 84.6805 0
M  V30 14 C  30.0437 39.3600 84.5788 0
M  V30 15 N  29.4725 40.5381 85.0905 0
M  V30 16 C  28.0574 40.7471 85.3528 0 CFG=2
M  V30 17 C  27.4405 41.6042 84.2329 0
M  V30 18 C  25.9409 41.8448 84.4936 0
M  V30 19 N  25.7468 42.4750 85.9020 0 CHG=1 CFG=2
M  V30 20 C  26.4185 41.6496 87.0309 0
M  V30 21 C  27.9080 41.4621 86.7036 0
M  V30 22 C  24.2438 42.7294 86.2108 0
M  V30 23 C  23.3236 41.5244 85.9896 0
M  V30 24 C  22.5872 41.3875 84.8047 0
M  V30 25 O  22.5713 42.3566 83.8359 0
M  V30 26 C  21.8492 40.2413 84.5396 0
M  V30 27 C  23.2467 40.5311 86.9758 0
M  V30 28 C  22.5259 39.3550 86.7148 0
M  V30 29 C  21.8594 39.2091 85.4750 0
M  V30 30 C  22.2327 38.1719 87.4468 0
M  V30 31 C  21.4932 37.3258 86.6715 0
M  V30 32 C  20.9363 36.0329 87.0517 0
M  V30 33 N  20.4926 35.0136 87.3651 0
M  V30 34 N  21.2662 37.9497 85.4589 0
M  V30 35 C  20.3655 37.4698 84.4182 0
M  V30 36 C  18.9702 37.9730 84.6956 0
M  V30 37 C  18.3793 38.2695 85.9212 0
M  V30 38 N  17.1401 38.7566 85.6435 0
M  V30 39 N  16.8830 38.7566 84.3404 0
M  V30 40 C  17.9679 38.2907 83.7773 0
M  V30 41 H  26.1577 36.7911 81.6329 0
M  V30 42 H  26.6863 35.1873 82.0435 0
M  V30 43 H  27.1712 38.6645 83.7951 0
M  V30 44 H  33.1332 38.2664 84.3597 0
M  V30 45 H  30.0957 41.3252 85.2135 0
M  V30 46 H  27.5549 39.7863 85.4364 0
M  V30 47 H  27.5622 41.1014 83.2729 0
M  V30 48 H  27.9631 42.5592 84.1425 0
M  V30 49 H  25.3876 40.9045 84.4708 0
M  V30 50 H  25.5001 42.5341 83.7697 0
M  V30 51 H  26.2742 42.1935 87.9660 0
M  V30 52 H  25.9114 40.6865 87.0866 0
M  V30 53 H  28.4194 42.4268 86.6962 0
M  V30 54 H  28.3798 40.8732 87.4929 0
M  V30 55 H  23.9806 43.5733 85.5712 0
M  V30 56 H  24.1958 43.0836 87.2425 0
M  V30 57 H  22.7403 43.2518 84.1437 0
M  V30 58 H  21.2830 40.1635 83.6435 0
M  V30 59 H  23.7614 40.6469 87.9178 0
M  V30 60 H  22.4830 37.9200 88.4435 0
M  V30 61 H  20.4045 36.3817 84.3747 0
M  V30 62 H  20.7375 37.8160 83.4546 0
M  V30 63 H  18.7333 38.2178 86.9404 0
M  V30 64 H  16.4839 39.1111 86.3316 0
M  V30 65 H  18.0381 38.1886 82.7056 0
M  V30 66 H  26.2179 43.3704 85.8848 0
M  V30 END ATOM
M  V30 BEGIN BOND
M  V30 1 1 1 2
M  V30 2 1 2 3
M  V30 3 1 2 4
M  V30 4 1 2 5
M  V30 5 1 5 6
M  V30 6 1 5 41
M  V30 7 1 5 42
M  V30 8 2 6 7
M  V30 9 1 6 8
M  V30 10 1 7 10
M  V30 11 1 7 43
M  V30 12 1 8 9
M  V30 13 2 9 10
M  V30 14 1 9 11
M  V30 15 1 10 14
M  V30 16 2 11 12
M  V30 17 1 12 13
M  V30 18 1 12 44
M  V30 19 2 13 14
M  V30 20 1 14 15
M  V30 21 1 15 16
M  V30 22 1 15 45
M  V30 23 1 16 17
M  V30 24 1 16 21
M  V30 25 1 16 46
M  V30 26 1 17 18
M  V30 27 1 17 47
M  V30 28 1 17 48
M  V30 29 1 18 19
M  V30 30 1 18 49
M  V30 31 1 18 50
M  V30 32 1 19 20
M  V30 33 1 19 22
M  V30 34 1 19 66
M  V30 35 1 20 21
M  V30 36 1 20 51
M  V30 37 1 20 52
M  V30 38 1 21 53
M  V30 39 1 21 54
M  V30 40 1 22 23
M  V30 41 1 22 55
M  V30 42 1 22 56
M  V30 43 2 23 24
M  V30 44 1 23 27
M  V30 45 1 24 25
M  V30 46 1 24 26
M  V30 47 1 25 57
M  V30 48 2 26 29
M  V30 49 1 26 58
M  V30 50 2 27 28
M  V30 51 1 27 59
M  V30 52 1 28 29
M  V30 53 1 28 30
M  V30 54 1 29 34
M  V30 55 2 30 31
M  V30 56 1 30 60
M  V30 57 1 31 32
M  V30 58 1 31 34
M  V30 59 3 32 33
M  V30 60 1 34 35
M  V30 61 1 35 36
M  V30 62 1 35 61
M  V30 63 1 35 62
M  V30 64 2 36 37
M  V30 65 1 36 40
M  V30 66 1 37 38
M  V30 67 1 37 63
M  V30 68 1 38 39
M  V30 69 1 38 64
M  V30 70 2 39 40
M  V30 71 1 40 65
M  V30 END BOND
M  V30 END CTAB
M  END
> <s_m_entry_id>
1761

> <s_m_entry_name>
result.1607

> <s_m_Source_Path>
D:\OneDrive - zju.edu.cn\DOC\A-Finished\LCK_VS\Planet\LCK-8617

> <s_m_Source_File>
glide-dock_SP_top1262_2_pv.maegz

> <i_m_Source_File_Index>
1761

> <PLANET_affinity>
9.043

> <i_lp_mmshare_version>
54117

> <i_f3d_flags>
0

> <s_epik_input>
RkMoRikoRilbQ0gyXWMoczEpW2NIXWMoYzEyKWMobltjSF1uMilbTkhdW0NIXTNbQ0gyXVtDSDJdTihbQ0gyXVtDSDJdMylbQ0gyXWMoW2NIXTQpYyhbT0hdKVtjSF1jKGM0NSluKGMoW2NIXTUpQyNOKVtDSDJdYzZbY0hdW25IXW5bY0hdNg==

> <s_epik_cmdline>
J2VwaWtfcHl0aG9uJywgJy1waCcsICc3LjAnLCAnLXRuJywgJzgnLCAnLW1hJywgJzUwMCcsICctaW1hZScsICc8aW5maWxlLm1hZT4nLCAnLW9tYWUnLCAnPG91dGZpbGUubWFlPic=

> <r_epik_Ionization_Penalty>
  0.4557

> <r_epik_Ionization_Penalty_Charging>
  0.1622

> <r_epik_Ionization_Penalty_Neutral>
  0.2935

> <r_epik_State_Penalty>
  0.4315

> <r_epik_Charging_Adjusted_Penalty>
0.59375

> <i_epik_Tot_Q>
1

> <i_epik_Tot_abs_Q>
1

> <s_lp_Force_Field>
S-OPLS

> <r_lp_Energy>
46.3927

> <b_lp_Chiralities_Consistent>
1

> <s_lp_Variant>
FC(F)(F)CC(S1)=CC2=C1N=CN=C2NC3CCN(CC4=C(O)C=C(N(CC5=CNN=C5)C(C#N)=C6)C6=C4)CC3-1

> <s_i_glide_gridfile>
glide-grid_1

> <i_i_glide_lignum>
495

> <i_i_glide_rotatable_bonds>
9

> <r_i_docking_score>
-7.1156279438238

> <r_i_glide_ligand_efficiency>
-0.177890698595595

> <r_i_glide_ligand_efficiency_sa>
-0.608377630723886

> <r_i_glide_ligand_efficiency_ln>
-1.51755403683511

> <r_i_glide_gscore>
-7.5471279438238

> <r_i_glide_lipo>
-3.07824228094896

> <r_i_glide_hbond>
-0.163822513642103

> <r_i_glide_metal>
0

> <r_i_glide_rewards>
-1.61982160860782

> <r_i_glide_evdw>
-51.4363632202148

> <r_i_glide_ecoul>
-3.14613246917725

> <r_i_glide_erotb>
0.365152143274875

> <r_i_glide_esite>
-0.0066556525124558

> <r_i_glide_emodel>
-74.6250219410821

> <r_i_glide_energy>
-54.5824956893921

> <r_i_glide_einternal>
14.0744152069092

> <i_i_glide_confnum>
210

> <i_i_glide_posenum>
65

> <r_i_glide_eff_state_penalty>
0.4315

> <r_lp_tautomer_probability>
0.5

> <s_m_subgroup_title>
glide-dock_SP_top1262_2_pv

> <s_m_subgroupid>
glide-dock_SP_top1262_2_pv

> <b_m_subgroup_collapsed>
0

$$$$
O=C1N(C2=NC(N3[C@H](C)COCC3)=C1)CC[C@@H](C(F)(F)F)N2CC4=CC(Cl)=CN=C4
                    3D
 Schrodinger Suite 2021-3.
  0  0  0     0  0            999 V3000
M  V30 BEGIN CTAB
M  V30 COUNTS 51 54 0 0 0
M  V30 BEGIN ATOM
M  V30 1 C  20.9461 36.8599 84.2235 0
M  V30 2 C  20.1737 38.1528 84.5503 0
M  V30 3 O  19.7480 38.1133 85.9088 0
M  V30 4 C  20.8554 38.0449 86.8067 0
M  V30 5 C  21.7108 36.7704 86.5531 0 CFG=1
M  V30 6 C  21.0191 35.4586 86.9711 0
M  V30 7 N  22.0975 36.7149 85.1277 0
M  V30 8 C  23.3987 36.5847 84.6907 0
M  V30 9 C  23.7679 35.8103 83.6565 0
M  V30 10 C  25.1507 35.7567 83.2525 0
M  V30 11 O  25.5130 34.9020 82.4436 0
M  V30 12 N  24.2938 37.3721 85.3421 0
M  V30 13 C  25.4958 37.5021 84.9048 0
M  V30 14 N  25.9575 36.6952 83.8593 0
M  V30 15 N  26.3901 38.4823 85.4704 0
M  V30 16 C  27.7212 38.7685 84.8963 0 CFG=2
M  V30 17 C  27.7670 39.8778 83.8108 0
M  V30 18 F  26.8862 39.6468 82.8438 0
M  V30 19 F  27.5139 41.0888 84.2998 0
M  V30 20 F  28.9696 39.9497 83.2436 0
M  V30 21 C  28.3013 37.4261 84.3973 0
M  V30 22 C  27.3726 36.7075 83.3925 0
M  V30 23 C  25.9681 39.3963 86.5519 0
M  V30 24 C  25.2877 40.6860 86.0841 0
M  V30 25 C  25.6559 41.9161 86.6478 0
M  V30 26 C  25.0404 43.0923 86.2167 0
M  V30 27 Cl 25.4942 44.6198 86.8825 0
M  V30 28 C  24.0499 43.0112 85.2357 0
M  V30 29 N  23.6570 41.8326 84.6871 0
M  V30 30 C  24.2670 40.6982 85.1171 0
M  V30 31 H  21.3328 36.9870 83.2119 0
M  V30 32 H  20.3554 35.9567 84.1001 0
M  V30 33 H  20.7835 39.0403 84.3591 0
M  V30 34 H  19.3036 38.2442 83.9008 0
M  V30 35 H  21.4725 38.9407 86.7057 0
M  V30 36 H  20.4768 38.0463 87.8303 0
M  V30 37 H  22.6061 36.8645 87.1713 0
M  V30 38 H  20.7892 35.4675 88.0364 0
M  V30 39 H  20.0808 35.3060 86.4434 0
M  V30 40 H  21.6572 34.5953 86.7804 0
M  V30 41 H  23.0533 35.1964 83.1368 0
M  V30 42 H  28.3765 39.1065 85.7026 0
M  V30 43 H  29.3005 37.5454 83.9769 0
M  V30 44 H  28.4160 36.7567 85.2429 0
M  V30 45 H  27.4017 37.1567 82.4038 0
M  V30 46 H  27.7430 35.6867 83.2599 0
M  V30 47 H  26.8354 39.6412 87.1694 0
M  V30 48 H  25.2716 38.8760 87.2106 0
M  V30 49 H  26.4253 41.9633 87.4038 0
M  V30 50 H  23.5550 43.8993 84.8664 0
M  V30 51 H  23.9094 39.7935 84.6525 0
M  V30 END ATOM
M  V30 BEGIN BOND
M  V30 1 1 1 2
M  V30 2 1 1 7
M  V30 3 1 1 31
M  V30 4 1 1 32
M  V30 5 1 2 3
M  V30 6 1 2 33
M  V30 7 1 2 34
M  V30 8 1 3 4
M  V30 9 1 4 5
M  V30 10 1 4 35
M  V30 11 1 4 36
M  V30 12 1 5 6
M  V30 13 1 5 7
M  V30 14 1 5 37
M  V30 15 1 6 38
M  V30 16 1 6 39
M  V30 17 1 6 40
M  V30 18 1 7 8
M  V30 19 2 8 9
M  V30 20 1 8 12
M  V30 21 1 9 10
M  V30 22 1 9 41
M  V30 23 2 10 11
M  V30 24 1 10 14
M  V30 25 2 12 13
M  V30 26 1 13 14
M  V30 27 1 13 15
M  V30 28 1 14 22
M  V30 29 1 15 16
M  V30 30 1 15 23
M  V30 31 1 16 17
M  V30 32 1 16 21
M  V30 33 1 16 42
M  V30 34 1 17 18
M  V30 35 1 17 19
M  V30 36 1 17 20
M  V30 37 1 21 22
M  V30 38 1 21 43
M  V30 39 1 21 44
M  V30 40 1 22 45
M  V30 41 1 22 46
M  V30 42 1 23 24
M  V30 43 1 23 47
M  V30 44 1 23 48
M  V30 45 2 24 25
M  V30 46 1 24 30
M  V30 47 1 25 26
M  V30 48 1 25 49
M  V30 49 1 26 27
M  V30 50 2 26 28
M  V30 51 1 28 29
M  V30 52 1 28 50
M  V30 53 2 29 30
M  V30 54 1 30 51
M  V30 END BOND
M  V30 END CTAB
M  END
> <s_m_entry_id>
1764

> <s_m_entry_name>
result.1119

> <s_m_Source_Path>
D:\OneDrive - zju.edu.cn\DOC\A-Finished\LCK_VS\Planet\LCK-8617

> <s_m_Source_File>
glide-dock_SP_top1262_2_pv.maegz

> <i_m_Source_File_Index>
1764

> <PLANET_affinity>
7.623

> <i_lp_mmshare_version>
54117

> <i_f3d_flags>
0

> <s_epik_input>
W0NIM11bQ0BASF0xW0NIMl1PW0NIMl1bQ0gyXU4xYyhuMilbY0hdYyg9TyluKGMyMylbQ0gyXVtDSDJdW0NAQEhdKEMoRikoRilGKU4zW0NIMl1jNFtjSF1jKENsKVtjSF1uW2NIXTQ=

> <s_epik_cmdline>
J2VwaWtfcHl0aG9uJywgJy1waCcsICc3LjAnLCAnLXRuJywgJzgnLCAnLW1hJywgJzUwMCcsICctaW1hZScsICc8aW5maWxlLm1hZT4nLCAnLW9tYWUnLCAnPG91dGZpbGUubWFlPic=

> <r_epik_Ionization_Penalty>
  0.0004

> <r_epik_Ionization_Penalty_Charging>
  0.0000

> <r_epik_Ionization_Penalty_Neutral>
  0.0004

> <r_epik_State_Penalty>
  0.0002

> <r_epik_Charging_Adjusted_Penalty>
0.000226579

> <i_epik_Tot_Q>
0

> <i_epik_Tot_abs_Q>
0

> <s_lp_Force_Field>
S-OPLS

> <r_lp_Energy>
23.001

> <b_lp_Chiralities_Consistent>
1

> <s_lp_Variant>
O=C1N(C2=NC(N3[C@H](C)COCC3)=C1)CC[C@@H](C(F)(F)F)N2CC4=CC(Cl)=CN=C4-1

> <s_i_glide_gridfile>
glide-grid_1

> <i_i_glide_lignum>
1763

> <i_i_glide_rotatable_bonds>
4

> <r_i_docking_score>
-7.11440066559953

> <r_i_glide_ligand_efficiency>
-0.237146688853318

> <r_i_glide_ligand_efficiency_sa>
-0.736869899448941

> <r_i_glide_ligand_efficiency_ln>
-1.61646934882814

> <r_i_glide_gscore>
-7.11460066559953

> <r_i_glide_lipo>
-2.59361283238561

> <r_i_glide_hbond>
-0.32

> <r_i_glide_metal>
0

> <r_i_glide_rewards>
-2.03720781630308

> <r_i_glide_evdw>
-37.6103782653809

> <r_i_glide_ecoul>
-3.72459006309509

> <r_i_glide_erotb>
0.304488952067126

> <r_i_glide_esite>
-0.0290615462446547

> <r_i_glide_emodel>
-57.039127296044

> <r_i_glide_energy>
-41.334968328476

> <r_i_glide_einternal>
3.20213103294373

> <i_i_glide_confnum>
10

> <i_i_glide_posenum>
250

> <r_i_glide_eff_state_penalty>
0.0002

> <r_lp_tautomer_probability>
1

> <s_m_subgroup_title>
glide-dock_SP_top1262_2_pv

> <s_m_subgroupid>
glide-dock_SP_top1262_2_pv

> <b_m_subgroup_collapsed>
0

$$$$
CCN1C2=NN=CC(C(C=C3)=CC(C(C=CC([S](CC)(=O)=O)=C4)=C4OC)=C3F)=C2N=C1
                    3D
 Schrodinger Suite 2021-3.
  0  0  0     0  0            999 V3000
M  V30 BEGIN CTAB
M  V30 COUNTS 52 55 0 0 0
M  V30 BEGIN ATOM
M  V30 1 C  16.4841 37.1257 87.2439 0
M  V30 2 C  17.6686 37.2562 88.2131 0
M  V30 3 N  18.9266 37.0372 87.5175 0
M  V30 4 C  19.7366 35.9258 87.6079 0
M  V30 5 N  20.7901 35.9572 86.8282 0
M  V30 6 C  20.6922 37.1594 86.1749 0
M  V30 7 C  19.5442 37.8641 86.6038 0
M  V30 8 C  21.5170 37.7707 85.2087 0
M  V30 9 C  21.1152 39.0496 84.8014 0
M  V30 10 N  19.9949 39.6708 85.2590 0
M  V30 11 N  19.1946 39.0741 86.1610 0
M  V30 12 C  22.7273 37.1240 84.6503 0
M  V30 13 C  22.6311 35.9579 83.8883 0
M  V30 14 C  23.7703 35.3827 83.3364 0
M  V30 15 C  25.0269 35.9300 83.5850 0
M  V30 16 F  26.1098 35.2904 83.0866 0
M  V30 17 C  25.1572 37.1119 84.3398 0
M  V30 18 C  23.9876 37.6989 84.8443 0
M  V30 19 C  26.4868 37.7666 84.5703 0
M  V30 20 C  27.4025 37.8329 83.5134 0
M  V30 21 C  28.6405 38.4442 83.6606 0
M  V30 22 C  28.9831 39.0356 84.8697 0
M  V30 23 S  30.5782 39.8333 85.0401 0
M  V30 24 O  30.9961 40.2480 83.6975 0
M  V30 25 O  30.4536 40.8148 86.1234 0
M  V30 26 C  31.7195 38.4425 85.6264 0
M  V30 27 C  31.9193 37.3871 84.5253 0
M  V30 28 C  28.0837 38.9968 85.9345 0
M  V30 29 C  26.8426 38.3476 85.8100 0
M  V30 30 O  25.9559 38.2351 86.8658 0
M  V30 31 C  26.2261 38.9028 88.0922 0
M  V30 32 H  15.5402 37.1573 87.7870 0
M  V30 33 H  16.4966 36.1772 86.7044 0
M  V30 34 H  16.4779 37.9308 86.5097 0
M  V30 35 H  17.6850 38.2491 88.6650 0
M  V30 36 H  17.5962 36.5273 89.0224 0
M  V30 37 H  19.4567 35.1068 88.2575 0
M  V30 38 H  21.6911 39.5970 84.0701 0
M  V30 39 H  21.6751 35.5005 83.7011 0
M  V30 40 H  23.6769 34.4824 82.7467 0
M  V30 41 H  24.0466 38.6227 85.4022 0
M  V30 42 H  27.1554 37.4063 82.5524 0
M  V30 43 H  29.3407 38.4588 82.8429 0
M  V30 44 H  32.6625 38.9129 85.8982 0
M  V30 45 H  31.2819 38.0154 86.5258 0
M  V30 46 H  32.6232 36.6194 84.8471 0
M  V30 47 H  30.9829 36.8899 84.2723 0
M  V30 48 H  32.3160 37.8375 83.6129 0
M  V30 49 H  28.3831 39.4553 86.8644 0
M  V30 50 H  25.3832 38.7581 88.7673 0
M  V30 51 H  27.1169 38.4992 88.5769 0
M  V30 52 H  26.3484 39.9771 87.9453 0
M  V30 END ATOM
M  V30 BEGIN BOND
M  V30 1 1 1 2
M  V30 2 1 1 32
M  V30 3 1 1 33
M  V30 4 1 1 34
M  V30 5 1 2 3
M  V30 6 1 2 35
M  V30 7 1 2 36
M  V30 8 1 3 4
M  V30 9 1 3 7
M  V30 10 2 4 5
M  V30 11 1 4 37
M  V30 12 1 5 6
M  V30 13 2 6 7
M  V30 14 1 6 8
M  V30 15 1 7 11
M  V30 16 2 8 9
M  V30 17 1 8 12
M  V30 18 1 9 10
M  V30 19 1 9 38
M  V30 20 2 10 11
M  V30 21 2 12 13
M  V30 22 1 12 18
M  V30 23 1 13 14
M  V30 24 1 13 39
M  V30 25 2 14 15
M  V30 26 1 14 40
M  V30 27 1 15 16
M  V30 28 1 15 17
M  V30 29 2 17 18
M  V30 30 1 17 19
M  V30 31 1 18 41
M  V30 32 2 19 20
M  V30 33 1 19 29
M  V30 34 1 20 21
M  V30 35 1 20 42
M  V30 36 2 21 22
M  V30 37 1 21 43
M  V30 38 1 22 23
M  V30 39 1 22 28
M  V30 40 2 23 24
M  V30 41 2 23 25
M  V30 42 1 23 26
M  V30 43 1 26 27
M  V30 44 1 26 44
M  V30 45 1 26 45
M  V30 46 1 27 46
M  V30 47 1 27 47
M  V30 48 1 27 48
M  V30 49 2 28 29
M  V30 50 1 28 49
M  V30 51 1 29 30
M  V30 52 1 30 31
M  V30 53 1 31 50
M  V30 54 1 31 51
M  V30 55 1 31 52
M  V30 END BOND
M  V30 END CTAB
M  END
> <s_m_entry_id>
1770

> <s_m_entry_name>
result.7727

> <s_m_Source_Path>
D:\OneDrive - zju.edu.cn\DOC\A-Finished\LCK_VS\Planet\LCK-8617

> <s_m_Source_File>
glide-dock_SP_top1262_2_pv.maegz

> <i_m_Source_File_Index>
1770

> <PLANET_affinity>
7.855

> <i_lp_mmshare_version>
54117

> <i_f3d_flags>
0

> <s_epik_input>
W0NIM11bQ0gyXW4oW2NIXW4xKWMoYzEyKW5uW2NIXWMyLWMzW2NIXVtjSF1jKEYpYyhbY0hdMyktYzRbY0hdW2NIXWMoUyg9TykoPU8pW0NIMl1bQ0gzXSlbY0hdYzRPW0NIM10=

> <s_epik_cmdline>
J2VwaWtfcHl0aG9uJywgJy1waCcsICc3LjAnLCAnLXRuJywgJzgnLCAnLW1hJywgJzUwMCcsICctaW1hZScsICc8aW5maWxlLm1hZT4nLCAnLW9tYWUnLCAnPG91dGZpbGUubWFlPic=

> <r_epik_Ionization_Penalty>
  0.0000

> <r_epik_Ionization_Penalty_Charging>
  0.0000

> <r_epik_Ionization_Penalty_Neutral>
  0.0000

> <r_epik_State_Penalty>
  0.0000

> <r_epik_Charging_Adjusted_Penalty>
2.00514e-05

> <i_epik_Tot_Q>
0

> <i_epik_Tot_abs_Q>
0

> <s_lp_Force_Field>
S-OPLS

> <r_lp_Energy>
38.614

> <b_lp_Chiralities_Consistent>
1

> <s_lp_Variant>
CCN1C2=NN=CC(C(C=C3)=CC(C(C=CC([S](CC)(=O)=O)=C4)=C4OC)=C3F)=C2N=C1-1

> <s_i_glide_gridfile>
glide-grid_1

> <i_i_glide_lignum>
1446

> <i_i_glide_rotatable_bonds>
6

> <r_i_docking_score>
-7.11319200948203

> <r_i_glide_ligand_efficiency>
-0.229457806757485

> <r_i_glide_ligand_efficiency_sa>
-0.720814313863037

> <r_i_glide_ligand_efficiency_ln>
-1.6042427912933

> <r_i_glide_gscore>
-7.11319200948203

> <r_i_glide_lipo>
-3.05429146151779

> <r_i_glide_hbond>
0

> <r_i_glide_metal>
0

> <r_i_glide_rewards>
-2.03195601040779

> <r_i_glide_evdw>
-45.9972534179688

> <r_i_glide_ecoul>
-0.0134864524006844

> <r_i_glide_erotb>
0.308717224640149

> <r_i_glide_esite>
-0.0337761234380549

> <r_i_glide_emodel>
-63.972829211519

> <r_i_glide_energy>
-46.0107398703694

> <r_i_glide_einternal>
2.78102111816406

> <i_i_glide_confnum>
42

> <i_i_glide_posenum>
137

> <r_i_glide_eff_state_penalty>
0

> <r_lp_tautomer_probability>
1

> <s_m_subgroup_title>
glide-dock_SP_top1262_2_pv

> <s_m_subgroupid>
glide-dock_SP_top1262_2_pv

> <b_m_subgroup_collapsed>
0

$$$$
O=C1OCC2=C([C@H]3CNCCC3)C=C(C4=C(O)C=CC=C4OCC5CC5)N=C2N1.[H]Cl
                    3D
 Schrodinger Suite 2021-3.
  0  0  0     0  0            999 V3000
M  V30 BEGIN CTAB
M  V30 COUNTS 55 59 0 0 0
M  V30 BEGIN ATOM
M  V30 1 C  22.8859 41.6274 84.7530 0
M  V30 2 C  22.8827 43.1566 84.7686 0
M  V30 3 C  23.1375 43.7457 86.1627 0
M  V30 4 N  22.0830 43.1856 87.1345 0 CHG=1
M  V30 5 C  22.1146 41.6421 87.1980 0
M  V30 6 C  21.8987 41.0207 85.7892 0 CFG=2
M  V30 7 C  21.9066 39.4765 85.8189 0
M  V30 8 C  22.8998 38.7569 85.1369 0
M  V30 9 C  22.8996 37.3621 85.1511 0
M  V30 10 N  21.9823 36.6467 85.8435 0
M  V30 11 C  21.0293 37.3441 86.4968 0
M  V30 12 C  20.9217 38.7407 86.5118 0
M  V30 13 N  20.0736 36.5745 87.1233 0
M  V30 14 C  18.8891 37.0533 87.6436 0
M  V30 15 O  18.0714 36.3565 88.2236 0
M  V30 16 O  18.6293 38.3918 87.4745 0
M  V30 17 C  19.7054 39.3261 87.2412 0
M  V30 18 C  23.8781 36.6026 84.3344 0
M  V30 19 C  23.4419 35.7587 83.2989 0
M  V30 20 O  22.1056 35.5565 83.0474 0
M  V30 21 C  24.3652 35.1571 82.4511 0
M  V30 22 C  25.7305 35.3647 82.6334 0
M  V30 23 C  26.1731 36.1985 83.6529 0
M  V30 24 C  25.2557 36.8246 84.5086 0
M  V30 25 O  25.6348 37.6705 85.5313 0
M  V30 26 C  26.9164 38.2829 85.5074 0
M  V30 27 C  26.8630 39.4455 86.5101 0
M  V30 28 C  26.8828 39.1597 87.9908 0
M  V30 29 C  28.0792 39.8152 87.3198 0
M  V30 30 H  23.9104 41.3133 84.9598 0
M  V30 31 H  22.6208 41.3053 83.7440 0
M  V30 32 H  23.6387 43.5277 84.0749 0
M  V30 33 H  21.9340 43.5381 84.3885 0
M  V30 34 H  24.1187 43.4805 86.5645 0
M  V30 35 H  23.0244 44.8311 86.1733 0
M  V30 36 H  22.2313 43.5782 88.0542 0
M  V30 37 H  21.3362 41.3866 87.9132 0
M  V30 38 H  23.0836 41.3745 87.6243 0
M  V30 39 H  20.8913 41.2735 85.4524 0
M  V30 40 H  23.6677 39.2395 84.5559 0
M  V30 41 H  20.2419 35.5913 87.2730 0
M  V30 42 H  20.0286 39.6684 88.2236 0
M  V30 43 H  19.3152 40.2000 86.7158 0
M  V30 44 H  21.9545 34.8363 82.4245 0
M  V30 45 H  24.0084 34.5359 81.6440 0
M  V30 46 H  26.4546 34.8934 81.9829 0
M  V30 47 H  27.2334 36.3505 83.7735 0
M  V30 48 H  27.1463 38.6732 84.5144 0
M  V30 49 H  27.6826 37.5567 85.7776 0
M  V30 50 H  26.2218 40.2550 86.1609 0
M  V30 51 H  26.9533 38.1225 88.3195 0
M  V30 52 H  26.2399 39.7541 88.6398 0
M  V30 53 H  28.2799 40.8725 87.4990 0
M  V30 54 H  28.9952 39.2396 87.1865 0
M  V30 55 H  21.1647 43.5139 86.8429 0
M  V30 END ATOM
M  V30 BEGIN BOND
M  V30 1 1 1 2
M  V30 2 1 1 6
M  V30 3 1 1 30
M  V30 4 1 1 31
M  V30 5 1 2 3
M  V30 6 1 2 32
M  V30 7 1 2 33
M  V30 8 1 3 4
M  V30 9 1 3 34
M  V30 10 1 3 35
M  V30 11 1 4 5
M  V30 12 1 4 36
M  V30 13 1 4 55
M  V30 14 1 5 6
M  V30 15 1 5 37
M  V30 16 1 5 38
M  V30 17 1 6 7
M  V30 18 1 6 39
M  V30 19 2 7 8
M  V30 20 1 7 12
M  V30 21 1 8 9
M  V30 22 1 8 40
M  V30 23 2 9 10
M  V30 24 1 9 18
M  V30 25 1 10 11
M  V30 26 2 11 12
M  V30 27 1 11 13
M  V30 28 1 12 17
M  V30 29 1 13 14
M  V30 30 1 13 41
M  V30 31 2 14 15
M  V30 32 1 14 16
M  V30 33 1 16 17
M  V30 34 1 17 42
M  V30 35 1 17 43
M  V30 36 2 18 19
M  V30 37 1 18 24
M  V30 38 1 19 20
M  V30 39 1 19 21
M  V30 40 1 20 44
M  V30 41 2 21 22
M  V30 42 1 21 45
M  V30 43 1 22 23
M  V30 44 1 22 46
M  V30 45 2 23 24
M  V30 46 1 23 47
M  V30 47 1 24 25
M  V30 48 1 25 26
M  V30 49 1 26 27
M  V30 50 1 26 48
M  V30 51 1 26 49
M  V30 52 1 27 28
M  V30 53 1 27 29
M  V30 54 1 27 50
M  V30 55 1 28 29
M  V30 56 1 28 51
M  V30 57 1 28 52
M  V30 58 1 29 53
M  V30 59 1 29 54
M  V30 END BOND
M  V30 END CTAB
M  END
> <s_m_entry_id>
1775

> <s_m_entry_name>
result.3233

> <s_m_Source_Path>
D:\OneDrive - zju.edu.cn\DOC\A-Finished\LCK_VS\Planet\LCK-8617

> <s_m_Source_File>
glide-dock_SP_top1262_2_pv.maegz

> <i_m_Source_File_Index>
1775

> <PLANET_affinity>
7.355

> <i_lp_mmshare_version>
54117

> <i_f3d_flags>
0

> <s_epik_input>
W0NIMl0xW05IXVtDSDJdW0NIMl1bQ0gyXVtDQEhdMWMoYyhjMjMpW0NIMl1PQyg9TylbTkhdMylbY0hdYyhuMiktYzRjKFtPSF0pW2NIXVtjSF1bY0hdYzRPW0NIMl1bQ0hdNVtDSDJdW0NIMl01

> <s_epik_cmdline>
J2VwaWtfcHl0aG9uJywgJy1waCcsICc3LjAnLCAnLXRuJywgJzgnLCAnLW1hJywgJzUwMCcsICctaW1hZScsICc8aW5maWxlLm1hZT4nLCAnLW9tYWUnLCAnPG91dGZpbGUubWFlPic=

> <r_epik_Ionization_Penalty>
  0.0013

> <r_epik_Ionization_Penalty_Charging>
  0.0002

> <r_epik_Ionization_Penalty_Neutral>
  0.0012

> <r_epik_State_Penalty>
  0.0008

> <r_epik_Charging_Adjusted_Penalty>
0.000935579

> <i_epik_Tot_Q>
1

> <i_epik_Tot_abs_Q>
1

> <s_epik_Chemistry_Notes>
This compound has an ester and may undergo hydrolysis at high or low pH.

> <s_lp_Force_Field>
S-OPLS

> <r_lp_Energy>
54.5614

> <b_lp_Chiralities_Consistent>
1

> <s_lp_Variant>
O=C1OCC2=C([C@H]3CNCCC3)C=C(C4=C(O)C=CC=C4OCC5CC5)N=C2N1.[H]Cl-1

> <s_i_glide_gridfile>
glide-grid_1

> <i_i_glide_lignum>
2168

> <i_i_glide_rotatable_bonds>
6

> <r_i_docking_score>
-7.11245093143321

> <r_i_glide_ligand_efficiency>
-0.245256928670111

> <r_i_glide_ligand_efficiency_sa>
-0.753506987723455

> <r_i_glide_ligand_efficiency_ln>
-1.62857090710414

> <r_i_glide_gscore>
-7.11325093143321

> <r_i_glide_lipo>
-2.73218866905058

> <r_i_glide_hbond>
-0.45677531891723

> <r_i_glide_metal>
0

> <r_i_glide_rewards>
-1.15635570627265

> <r_i_glide_evdw>
-42.0567932128906

> <r_i_glide_ecoul>
-8.07222461700439

> <r_i_glide_erotb>
0.622376742815515

> <r_i_glide_esite>
-0.0766346268130817

> <r_i_glide_emodel>
-71.9460672896529

> <r_i_glide_energy>
-50.129017829895

> <r_i_glide_einternal>
5.86238574981689

> <i_i_glide_confnum>
14

> <i_i_glide_posenum>
112

> <r_i_glide_eff_state_penalty>
0.0008

> <r_lp_tautomer_probability>
1

> <s_m_subgroup_title>
glide-dock_SP_top1262_2_pv

> <s_m_subgroupid>
glide-dock_SP_top1262_2_pv

> <b_m_subgroup_collapsed>
0

$$$$
COC(C=C1[C@H]2[C@@](CO[C@@H]3C4=CC(OC)=C(O[C@@H]([C@@H]([C@@H](O)[C@@H]5O)O)O...
                    3D
 Schrodinger Suite 2021-3.
  0  0  0     0  0            999 V3000
M  V30 BEGIN CTAB
M  V30 COUNTS 98 103 0 0 0
M  V30 BEGIN ATOM
M  V30 1 O  20.0954 34.6489 88.0434 0
M  V30 2 C  19.0171 35.5614 88.0836 0
M  V30 3 C  19.2959 36.8683 87.3505 0 CFG=1
M  V30 4 O  20.0829 36.6632 86.1703 0
M  V30 5 C  17.9514 37.4808 86.9191 0 CFG=1
M  V30 6 O  17.0500 37.5574 88.0150 0
M  V30 7 C  18.1632 38.7792 86.1316 0 CFG=2
M  V30 8 O  16.9088 39.1592 85.6030 0
M  V30 9 C  19.2585 38.5987 85.0338 0 CFG=1
M  V30 10 O  19.6829 39.8262 84.4750 0
M  V30 11 C  20.4852 37.8844 85.6153 0 CFG=2
M  V30 12 O  21.3923 37.6589 84.5713 0
M  V30 13 C  22.7393 37.8000 84.8436 0
M  V30 14 C  23.2702 38.9705 85.4195 0
M  V30 15 O  22.4897 40.0702 85.6833 0
M  V30 16 C  22.5580 41.0782 84.6775 0
M  V30 17 C  24.6283 39.0483 85.7086 0
M  V30 18 C  25.4875 38.0077 85.3672 0
M  V30 19 C  24.9779 36.8780 84.7267 0
M  V30 20 C  23.6068 36.7717 84.4465 0
M  V30 21 O  23.0682 35.7061 83.7541 0
M  V30 22 C  23.8916 35.0515 82.7934 0
M  V30 23 C  26.9760 38.1449 85.6311 0 CFG=2
M  V30 24 O  27.2784 38.7561 86.9081 0
M  V30 25 C  28.3551 39.7125 86.8123 0
M  V30 26 C  28.9146 39.3580 85.4470 0 CFG=1
M  V30 27 C  27.6738 39.1230 84.6978 0 CFG=1
M  V30 28 C  29.6332 40.3207 84.5165 0 CFG=2
M  V30 29 O  29.3404 39.7002 83.2447 0
M  V30 30 C  28.2212 38.7897 83.3232 0
M  V30 31 C  31.1158 40.4671 84.8258 0
M  V30 32 C  31.5867 41.6352 85.4183 0
M  V30 33 C  32.9290 41.7662 85.7961 0
M  V30 34 O  33.4568 42.9217 86.3433 0
M  V30 35 C  32.6796 44.1143 86.3338 0
M  V30 36 C  33.7897 40.6717 85.6320 0
M  V30 37 C  33.3548 39.5217 84.9461 0
M  V30 38 C  32.0080 39.4303 84.5615 0
M  V30 39 O  34.2862 38.5368 84.6663 0
M  V30 40 C  33.8691 37.3187 84.0593 0
M  V30 41 O  35.0691 40.7531 86.1549 0
M  V30 42 C  35.3600 40.0365 87.3408 0 CFG=1
M  V30 43 C  34.3920 40.4018 88.5010 0 CFG=2
M  V30 44 O  34.5195 41.7561 88.8935 0
M  V30 45 C  34.6323 39.4864 89.7245 0 CFG=1
M  V30 46 O  33.7012 39.7420 90.7660 0
M  V30 47 C  34.6252 38.0040 89.3162 0 CFG=2
M  V30 48 O  34.8825 37.1569 90.4275 0
M  V30 49 C  35.6418 37.7909 88.1705 0 CFG=2
M  V30 50 O  35.3435 38.6584 87.0770 0
M  V30 51 C  35.6675 36.3538 87.6138 0
M  V30 52 O  34.4026 35.9566 87.1185 0
M  V30 53 H  19.7922 33.7989 88.3815 0
M  V30 54 H  18.1242 35.1567 87.6436 0
M  V30 55 H  18.7041 35.7812 89.1007 0
M  V30 56 H  19.8277 37.5229 88.0431 0
M  V30 57 H  17.4706 36.7781 86.2345 0
M  V30 58 H  16.8588 38.4796 88.2260 0
M  V30 59 H  18.4729 39.5587 86.8323 0
M  V30 60 H  16.4829 39.7383 86.2576 0
M  V30 61 H  18.8730 37.9790 84.2199 0
M  V30 62 H  19.8680 40.4445 85.1865 0
M  V30 63 H  20.9411 38.4484 86.4321 0
M  V30 64 H  21.8903 41.8999 84.9376 0
M  V30 65 H  23.5647 41.4883 84.5781 0
M  V30 66 H  22.2432 40.6915 83.7061 0
M  V30 67 H  25.0216 39.9431 86.1705 0
M  V30 68 H  25.6583 36.0905 84.4417 0
M  V30 69 H  23.2838 34.3570 82.2214 0
M  V30 70 H  24.3260 35.7623 82.0881 0
M  V30 71 H  24.6960 34.4718 83.2437 0
M  V30 72 H  27.4531 37.1620 85.5943 0
M  V30 73 H  27.9929 40.7416 86.8415 0
M  V30 74 H  29.0974 39.5666 87.5939 0
M  V30 75 H  29.5238 38.4530 85.5489 0
M  V30 76 H  27.0613 40.0272 84.6133 0
M  V30 77 H  29.1564 41.3042 84.5268 0
M  V30 78 H  28.5364 37.7465 83.2660 0
M  V30 79 H  27.4651 39.0087 82.5672 0
M  V30 80 H  30.8924 42.4483 85.5715 0
M  V30 81 H  33.2842 44.9364 86.7165 0
M  V30 82 H  32.3650 44.3805 85.3229 0
M  V30 83 H  31.8025 44.0287 86.9765 0
M  V30 84 H  31.6315 38.5487 84.0667 0
M  V30 85 H  34.7288 36.6559 83.9640 0
M  V30 86 H  33.1239 36.8031 84.6661 0
M  V30 87 H  33.4669 37.4876 83.0604 0
M  V30 88 H  36.3992 40.2570 87.5910 0
M  V30 89 H  33.3651 40.2510 88.1623 0
M  V30 90 H  34.0946 41.8384 89.7527 0
M  V30 91 H  35.6133 39.7280 90.1398 0
M  V30 92 H  33.6839 38.9583 91.3226 0
M  V30 93 H  33.6252 37.7489 88.9558 0
M  V30 94 H  34.2926 36.3930 90.3622 0
M  V30 95 H  36.6460 38.0234 88.5330 0
M  V30 96 H  36.4018 36.2700 86.8116 0
M  V30 97 H  35.9756 35.6489 88.3864 0
M  V30 98 H  34.4828 35.0212 86.8558 0
M  V30 END ATOM
M  V30 BEGIN BOND
M  V30 1 1 1 2
M  V30 2 1 1 53
M  V30 3 1 2 3
M  V30 4 1 2 54
M  V30 5 1 2 55
M  V30 6 1 3 4
M  V30 7 1 3 5
M  V30 8 1 3 56
M  V30 9 1 4 11
M  V30 10 1 5 6
M  V30 11 1 5 7
M  V30 12 1 5 57
M  V30 13 1 6 58
M  V30 14 1 7 8
M  V30 15 1 7 9
M  V30 16 1 7 59
M  V30 17 1 8 60
M  V30 18 1 9 10
M  V30 19 1 9 11
M  V30 20 1 9 61
M  V30 21 1 10 62
M  V30 22 1 11 12
M  V30 23 1 11 63
M  V30 24 1 12 13
M  V30 25 2 13 14
M  V30 26 1 13 20
M  V30 27 1 14 15
M  V30 28 1 14 17
M  V30 29 1 15 16
M  V30 30 1 16 64
M  V30 31 1 16 65
M  V30 32 1 16 66
M  V30 33 2 17 18
M  V30 34 1 17 67
M  V30 35 1 18 19
M  V30 36 1 18 23
M  V30 37 2 19 20
M  V30 38 1 19 68
M  V30 39 1 20 21
M  V30 40 1 21 22
M  V30 41 1 22 69
M  V30 42 1 22 70
M  V30 43 1 22 71
M  V30 44 1 23 24
M  V30 45 1 23 27
M  V30 46 1 23 72
M  V30 47 1 24 25
M  V30 48 1 25 26
M  V30 49 1 25 73
M  V30 50 1 25 74
M  V30 51 1 26 27
M  V30 52 1 26 28
M  V30 53 1 26 75
M  V30 54 1 27 30
M  V30 55 1 27 76
M  V30 56 1 28 29
M  V30 57 1 28 31
M  V30 58 1 28 77
M  V30 59 1 29 30
M  V30 60 1 30 78
M  V30 61 1 30 79
M  V30 62 2 31 32
M  V30 63 1 31 38
M  V30 64 1 32 33
M  V30 65 1 32 80
M  V30 66 1 33 34
M  V30 67 2 33 36
M  V30 68 1 34 35
M  V30 69 1 35 81
M  V30 70 1 35 82
M  V30 71 1 35 83
M  V30 72 1 36 37
M  V30 73 1 36 41
M  V30 74 2 37 38
M  V30 75 1 37 39
M  V30 76 1 38 84
M  V30 77 1 39 40
M  V30 78 1 40 85
M  V30 79 1 40 86
M  V30 80 1 40 87
M  V30 81 1 41 42
M  V30 82 1 42 43
M  V30 83 1 42 50
M  V30 84 1 42 88
M  V30 85 1 43 44
M  V30 86 1 43 45
M  V30 87 1 43 89
M  V30 88 1 44 90
M  V30 89 1 45 46
M  V30 90 1 45 47
M  V30 91 1 45 91
M  V30 92 1 46 92
M  V30 93 1 47 48
M  V30 94 1 47 49
M  V30 95 1 47 93
M  V30 96 1 48 94
M  V30 97 1 49 50
M  V30 98 1 49 51
M  V30 99 1 49 95
M  V30 100 1 51 52
M  V30 101 1 51 96
M  V30 102 1 51 97
M  V30 103 1 52 98
M  V30 END BOND
M  V30 END CTAB
M  END
> <s_m_entry_id>
1778

> <s_m_entry_name>
result.3052

> <s_m_Source_Path>
D:\OneDrive - zju.edu.cn\DOC\A-Finished\LCK_VS\Planet\LCK-8617

> <s_m_Source_File>
glide-dock_SP_top1262_2_pv.maegz

> <i_m_Source_File_Index>
1778

> <PLANET_affinity>
7.619

> <i_lp_mmshare_version>
54117

> <i_f3d_flags>
0

> <s_epik_input>
W09IXVtDSDJdW0NASF0xT1tDQEhdKFtDQEhdKFtPSF0pW0NAQEhdKFtPSF0pW0NAQEhdMVtPSF0pT2MyYyhPW0NIM10pW2NIXWMoW2NIXWMyT1tDSDNdKVtDQEhdKE9bQ0gyXTMpW0NAQEhdKFtDQEhdMzQpW0NIMl1PW0NAQEhdNGM1W2NIXWMoT1tDSDNdKWMoYyhbY0hdNSlPW0NIM10pT1tDQEhdNltDQEhdKFtPSF0pW0NAQEhdKFtPSF0pW0NASF0oW09IXSlbQ0BIXShPNilbQ0gyXVtPSF0=

> <s_epik_cmdline>
J2VwaWtfcHl0aG9uJywgJy1waCcsICc3LjAnLCAnLXRuJywgJzgnLCAnLW1hJywgJzUwMCcsICctaW1hZScsICc8aW5maWxlLm1hZT4nLCAnLW9tYWUnLCAnPG91dGZpbGUubWFlPic=

> <r_epik_Ionization_Penalty>
  0.0000

> <r_epik_Ionization_Penalty_Charging>
  0.0000

> <r_epik_Ionization_Penalty_Neutral>
  0.0000

> <r_epik_State_Penalty>
  0.0000

> <r_epik_Charging_Adjusted_Penalty>
0

> <i_epik_Tot_Q>
0

> <i_epik_Tot_abs_Q>
0

> <s_epik_Chemistry_Notes>
This compound contains an acetal/aminal-like group ( X-CH(R)-Y where X, Y are N, S, or O) that may be acid/base labile, releasing an aldehyde.

> <s_lp_Force_Field>
S-OPLS

> <r_lp_Energy>
84.4362

> <b_lp_Chiralities_Consistent>
1

> <s_lp_Variant>
COC(C=C1[C@H]2[C@@](CO[C@@H]3C4=CC(OC)=C(O[C@@H]([C@@H]([C@@H](O)[C@@H]5O)O)O...-1

> <s_i_glide_gridfile>
glide-grid_1

> <i_i_glide_lignum>
1778

> <i_i_glide_rotatable_bonds>
20

> <r_i_docking_score>
-7.11139646610571

> <r_i_glide_ligand_efficiency>
-0.136757624348187

> <r_i_glide_ligand_efficiency_sa>
-0.510449357987126

> <r_i_glide_ligand_efficiency_ln>
-1.43628487513501

> <r_i_glide_gscore>
-7.11139646610571

> <r_i_glide_lipo>
-2.54983830707453

> <r_i_glide_hbond>
0

> <r_i_glide_metal>
0

> <r_i_glide_rewards>
-0.184492095154544

> <r_i_glide_evdw>
-38.9157676696777

> <r_i_glide_ecoul>
-17.0293922424316

> <r_i_glide_erotb>
0.123131155971999

> <r_i_glide_esite>
0

> <r_i_glide_emodel>
-70.8641792149236

> <r_i_glide_energy>
-55.9451599121094

> <r_i_glide_einternal>
21.4301872253418

> <i_i_glide_confnum>
358

> <i_i_glide_posenum>
279

> <r_i_glide_eff_state_penalty>
0

> <r_lp_tautomer_probability>
1

> <s_m_subgroup_title>
glide-dock_SP_top1262_2_pv

> <s_m_subgroupid>
glide-dock_SP_top1262_2_pv

> <b_m_subgroup_collapsed>
0

$$$$
O=C(NC1=CC=C(C2=C3C(N)=NNC3=CC=C2)C=C1)NC4=C(C=CC(C)=C4)F
                    3D
 Schrodinger Suite 2021-3.
  0  0  0     0  0            999 V3000
M  V30 BEGIN CTAB
M  V30 COUNTS 46 49 0 0 0
M  V30 BEGIN ATOM
M  V30 1 C  32.5008 34.7153 82.4887 0
M  V30 2 C  31.5269 35.8242 82.8391 0
M  V30 3 C  30.1528 35.6128 82.7059 0
M  V30 4 C  31.9961 37.0639 83.2779 0
M  V30 5 C  31.0971 38.0892 83.5659 0
M  V30 6 C  29.7243 37.8814 83.4323 0
M  V30 7 F  28.8925 38.9286 83.6437 0
M  V30 8 C  29.2410 36.6187 83.0348 0
M  V30 9 N  27.8807 36.3183 82.8432 0
M  V30 10 C  26.8725 36.6219 83.6803 0
M  V30 11 O  27.0083 37.2962 84.7003 0
M  V30 12 N  25.7155 36.0638 83.2708 0
M  V30 13 C  24.4148 36.2365 83.7880 0
M  V30 14 C  24.0914 37.0799 84.8640 0
M  V30 15 C  22.7615 37.3256 85.1863 0
M  V30 16 C  21.7308 36.7505 84.4426 0
M  V30 17 C  22.0584 35.8480 83.4240 0
M  V30 18 C  23.3880 35.5739 83.1104 0
M  V30 19 C  20.3277 37.1756 84.7017 0
M  V30 20 C  19.5958 37.8371 83.7113 0
M  V30 21 C  18.3209 38.3491 83.9414 0
M  V30 22 C  17.7092 38.2584 85.1902 0
M  V30 23 C  18.4072 37.5566 86.1755 0
M  V30 24 C  19.6956 36.9942 85.9511 0
M  V30 25 N  18.0775 37.2235 87.4727 0
M  V30 26 N  19.0182 36.4508 88.0435 0
M  V30 27 C  19.9860 36.3130 87.1777 0
M  V30 28 N  21.0859 35.5404 87.4186 0
M  V30 29 H  33.5121 35.0938 82.3379 0
M  V30 30 H  32.2005 34.2286 81.5600 0
M  V30 31 H  32.5141 33.9594 83.2745 0
M  V30 32 H  29.7962 34.6573 82.3509 0
M  V30 33 H  33.0569 37.2406 83.3818 0
M  V30 34 H  31.4649 39.0560 83.8775 0
M  V30 35 H  27.6961 35.6191 82.1393 0
M  V30 36 H  25.7663 35.4932 82.4431 0
M  V30 37 H  24.8366 37.6045 85.4380 0
M  V30 38 H  22.5322 38.0167 85.9849 0
M  V30 39 H  21.2836 35.3684 82.8441 0
M  V30 40 H  23.6005 34.9033 82.2902 0
M  V30 41 H  20.0379 37.9580 82.7350 0
M  V30 42 H  17.7962 38.8286 83.1285 0
M  V30 43 H  16.7253 38.6680 85.3706 0
M  V30 44 H  17.2355 37.4684 87.9767 0
M  V30 45 H  21.4872 34.9961 86.6676 0
M  V30 46 H  21.2026 35.1274 88.3321 0
M  V30 END ATOM
M  V30 BEGIN BOND
M  V30 1 1 1 2
M  V30 2 1 1 29
M  V30 3 1 1 30
M  V30 4 1 1 31
M  V30 5 2 2 3
M  V30 6 1 2 4
M  V30 7 1 3 8
M  V30 8 1 3 32
M  V30 9 2 4 5
M  V30 10 1 4 33
M  V30 11 1 5 6
M  V30 12 1 5 34
M  V30 13 1 6 7
M  V30 14 2 6 8
M  V30 15 1 8 9
M  V30 16 1 9 10
M  V30 17 1 9 35
M  V30 18 2 10 11
M  V30 19 1 10 12
M  V30 20 1 12 13
M  V30 21 1 12 36
M  V30 22 2 13 14
M  V30 23 1 13 18
M  V30 24 1 14 15
M  V30 25 1 14 37
M  V30 26 2 15 16
M  V30 27 1 15 38
M  V30 28 1 16 17
M  V30 29 1 16 19
M  V30 30 2 17 18
M  V30 31 1 17 39
M  V30 32 1 18 40
M  V30 33 2 19 20
M  V30 34 1 19 24
M  V30 35 1 20 21
M  V30 36 1 20 41
M  V30 37 2 21 22
M  V30 38 1 21 42
M  V30 39 1 22 23
M  V30 40 1 22 43
M  V30 41 2 23 24
M  V30 42 1 23 25
M  V30 43 1 24 27
M  V30 44 1 25 26
M  V30 45 1 25 44
M  V30 46 2 26 27
M  V30 47 1 27 28
M  V30 48 1 28 45
M  V30 49 1 28 46
M  V30 END BOND
M  V30 END CTAB
M  END
> <s_m_entry_id>
1780

> <s_m_entry_name>
result.2145

> <s_m_Source_Path>
D:\OneDrive - zju.edu.cn\DOC\A-Finished\LCK_VS\Planet\LCK-8617

> <s_m_Source_File>
glide-dock_SP_top1262_2_pv.maegz

> <i_m_Source_File_Index>
1780

> <PLANET_affinity>
7.031

> <i_lp_mmshare_version>
54117

> <i_f3d_flags>
0

> <s_epik_input>
W0NIM11jMVtjSF1jKGMoRilbY0hdW2NIXTEpW05IXUMoPU8pW05IXWMyW2NIXVtjSF1jKFtjSF1bY0hdMiktYyhbY0hdW2NIXVtjSF0zKWMoYzM0KWMoW05IMl0pbltuSF00

> <s_epik_cmdline>
J2VwaWtfcHl0aG9uJywgJy1waCcsICc3LjAnLCAnLXRuJywgJzgnLCAnLW1hJywgJzUwMCcsICctaW1hZScsICc8aW5maWxlLm1hZT4nLCAnLW9tYWUnLCAnPG91dGZpbGUubWFlPic=

> <r_epik_Ionization_Penalty>
  0.0001

> <r_epik_Ionization_Penalty_Charging>
  0.0000

> <r_epik_Ionization_Penalty_Neutral>
  0.0001

> <r_epik_State_Penalty>
  0.0000

> <r_epik_Charging_Adjusted_Penalty>
0

> <i_epik_Tot_Q>
0

> <i_epik_Tot_abs_Q>
0

> <s_lp_Force_Field>
S-OPLS

> <r_lp_Energy>
42.3777

> <b_lp_Chiralities_Consistent>
1

> <s_lp_Variant>
O=C(NC1=CC=C(C2=C3C(N)=NNC3=CC=C2)C=C1)NC4=C(C=CC(C)=C4)F-1

> <s_i_glide_gridfile>
glide-grid_1

> <i_i_glide_lignum>
2651

> <i_i_glide_rotatable_bonds>
5

> <r_i_docking_score>
-7.11073056925274

> <r_i_glide_ligand_efficiency>
-0.253954663187598

> <r_i_glide_ligand_efficiency_sa>
-0.771155928735308

> <r_i_glide_ligand_efficiency_ln>
-1.64136539550511

> <r_i_glide_gscore>
-7.11073056925274

> <r_i_glide_lipo>
-3.73887728114204

> <r_i_glide_hbond>
-0.0314958373393809

> <r_i_glide_metal>
0

> <r_i_glide_rewards>
-1.32658810642352

> <r_i_glide_evdw>
-46.0912971496582

> <r_i_glide_ecoul>
-2.63744330406189

> <r_i_glide_erotb>
0.686412008744394

> <r_i_glide_esite>
0

> <r_i_glide_emodel>
-66.2385292123991

> <r_i_glide_energy>
-48.7287404537201

> <r_i_glide_einternal>
10.0194683074951

> <i_i_glide_confnum>
58

> <i_i_glide_posenum>
231

> <r_i_glide_eff_state_penalty>
0

> <r_lp_tautomer_probability>
1

> <s_m_subgroup_title>
glide-dock_SP_top1262_2_pv

> <s_m_subgroupid>
glide-dock_SP_top1262_2_pv

> <b_m_subgroup_collapsed>
0

$$$$
O=C1C2=C(N(C3CCOCC3)N=C2)NC(CC4=CC=CC=N4)=N1
                    3D
 Schrodinger Suite 2021-3.
  0  0  0     0  0            999 V3000
M  V30 BEGIN CTAB
M  V30 COUNTS 40 43 0 0 0
M  V30 BEGIN ATOM
M  V30 1 N  26.3014 40.1521 85.2188 0
M  V30 2 C  26.6342 41.4119 84.8411 0
M  V30 3 C  27.9234 41.7675 84.4429 0
M  V30 4 C  28.9093 40.7782 84.4138 0
M  V30 5 C  28.5859 39.4732 84.7958 0
M  V30 6 C  27.2736 39.1964 85.1965 0
M  V30 7 C  26.8913 37.8144 85.7262 0
M  V30 8 C  25.6846 37.1565 85.0704 0
M  V30 9 N  25.8914 36.2785 84.0224 0
M  V30 10 C  24.9539 35.5930 83.3016 0
M  V30 11 O  25.2833 34.7827 82.4435 0
M  V30 12 N  24.4961 37.4028 85.5050 0
M  V30 13 C  23.4784 36.8370 84.8002 0
M  V30 14 C  23.6176 35.9836 83.7209 0
M  V30 15 N  22.1286 37.0590 84.9566 0
M  V30 16 N  21.4185 36.3614 84.0440 0
M  V30 17 C  22.3078 35.7294 83.3044 0
M  V30 18 C  21.4687 37.9515 85.9320 0
M  V30 19 C  21.8676 39.4351 85.7518 0
M  V30 20 C  21.0811 40.0941 84.6064 0
M  V30 21 O  19.6833 39.9500 84.8554 0
M  V30 22 C  19.2199 38.5984 84.8918 0
M  V30 23 C  19.9273 37.8222 86.0249 0
M  V30 24 H  25.8398 42.1450 84.8697 0
M  V30 25 H  28.1586 42.7859 84.1623 0
M  V30 26 H  29.9183 41.0272 84.1136 0
M  V30 27 H  29.3468 38.7061 84.7972 0
M  V30 28 H  27.7527 37.1561 85.6435 0
M  V30 29 H  26.7088 37.9153 86.7964 0
M  V30 30 H  26.8337 36.0845 83.7260 0
M  V30 31 H  22.0090 35.1492 82.4438 0
M  V30 32 H  21.8844 37.6003 86.8792 0
M  V30 33 H  21.6941 39.9636 86.6891 0
M  V30 34 H  22.9414 39.5482 85.6101 0
M  V30 35 H  21.3210 41.1555 84.5467 0
M  V30 36 H  21.3499 39.6566 83.6453 0
M  V30 37 H  18.1432 38.6042 85.0587 0
M  V30 38 H  19.3764 38.1264 83.9217 0
M  V30 39 H  19.6253 36.7730 86.0521 0
M  V30 40 H  19.5989 38.1975 86.9962 0
M  V30 END ATOM
M  V30 BEGIN BOND
M  V30 1 2 1 2
M  V30 2 1 1 6
M  V30 3 1 2 3
M  V30 4 1 2 24
M  V30 5 2 3 4
M  V30 6 1 3 25
M  V30 7 1 4 5
M  V30 8 1 4 26
M  V30 9 2 5 6
M  V30 10 1 5 27
M  V30 11 1 6 7
M  V30 12 1 7 8
M  V30 13 1 7 28
M  V30 14 1 7 29
M  V30 15 1 8 9
M  V30 16 2 8 12
M  V30 17 1 9 10
M  V30 18 1 9 30
M  V30 19 2 10 11
M  V30 20 1 10 14
M  V30 21 1 12 13
M  V30 22 2 13 14
M  V30 23 1 13 15
M  V30 24 1 14 17
M  V30 25 1 15 16
M  V30 26 1 15 18
M  V30 27 2 16 17
M  V30 28 1 17 31
M  V30 29 1 18 19
M  V30 30 1 18 23
M  V30 31 1 18 32
M  V30 32 1 19 20
M  V30 33 1 19 33
M  V30 34 1 19 34
M  V30 35 1 20 21
M  V30 36 1 20 35
M  V30 37 1 20 36
M  V30 38 1 21 22
M  V30 39 1 22 23
M  V30 40 1 22 37
M  V30 41 1 22 38
M  V30 42 1 23 39
M  V30 43 1 23 40
M  V30 END BOND
M  V30 END CTAB
M  END
> <s_m_entry_id>
1784

> <s_m_entry_name>
result.6610

> <s_m_Source_Path>
D:\OneDrive - zju.edu.cn\DOC\A-Finished\LCK_VS\Planet\LCK-8617

> <s_m_Source_File>
glide-dock_SP_top1262_2_pv.maegz

> <i_m_Source_File_Index>
1784

> <PLANET_affinity>
7.164

> <i_lp_mmshare_version>
54117

> <i_f3d_flags>
0

> <s_epik_input>
W2NIXTFbY0hdW2NIXVtjSF1uYzFbQ0gyXWMobjIpW25IXWMoPU8pYyhjMjMpW2NIXW5uM1tDSF00W0NIMl1bQ0gyXU9bQ0gyXVtDSDJdNA==

> <s_epik_cmdline>
J2VwaWtfcHl0aG9uJywgJy1waCcsICc3LjAnLCAnLXRuJywgJzgnLCAnLW1hJywgJzUwMCcsICctaW1hZScsICc8aW5maWxlLm1hZT4nLCAnLW9tYWUnLCAnPG91dGZpbGUubWFlPic=

> <r_epik_Ionization_Penalty>
  0.0291

> <r_epik_Ionization_Penalty_Charging>
  0.0039

> <r_epik_Ionization_Penalty_Neutral>
  0.0251

> <r_epik_State_Penalty>
  0.0275

> <r_epik_Charging_Adjusted_Penalty>
0.0313978

> <i_epik_Tot_Q>
0

> <i_epik_Tot_abs_Q>
0

> <s_lp_Force_Field>
S-OPLS

> <r_lp_Energy>
9.28542

> <b_lp_Chiralities_Consistent>
1

> <s_lp_Variant>
O=C1C2=C(N(C3CCOCC3)N=C2)NC(CC4=CC=CC=N4)=N1-1

> <s_i_glide_gridfile>
glide-grid_1

> <i_i_glide_lignum>
2440

> <i_i_glide_rotatable_bonds>
3

> <r_i_docking_score>
-7.11011103755687

> <r_i_glide_ligand_efficiency>
-0.309135262502472

> <r_i_glide_ligand_efficiency_sa>
-0.879139564419682

> <r_i_glide_ligand_efficiency_ln>
-1.71928931980368

> <r_i_glide_gscore>
-7.13761103755687

> <r_i_glide_lipo>
-1.95952949107855

> <r_i_glide_hbond>
-0.529083398616972

> <r_i_glide_metal>
0

> <r_i_glide_rewards>
-2.60129705998481

> <r_i_glide_evdw>
-31.9575023651123

> <r_i_glide_ecoul>
-6.82500696182251

> <r_i_glide_erotb>
0.573925074652464

> <r_i_glide_esite>
0

> <r_i_glide_emodel>
-55.1932976857844

> <r_i_glide_energy>
-38.7825093269348

> <r_i_glide_einternal>
0.629325985908508

> <i_i_glide_confnum>
27

> <i_i_glide_posenum>
371

> <r_i_glide_eff_state_penalty>
0.0275

> <s_m_subgroup_title>
glide-dock_SP_top1262_2_pv

> <s_m_subgroupid>
glide-dock_SP_top1262_2_pv

> <b_m_subgroup_collapsed>
0

$$$$
O=S(N1N=CC2=NC=C(C3=CN(C)N=C3)C=C21)(C4=CN=C5C=CC(C6=CN(C)N=C6)=CN54)=O
                    3D
 Schrodinger Suite 2021-3.
  0  0  0     0  0            999 V3000
M  V30 BEGIN CTAB
M  V30 COUNTS 50 55 0 0 0
M  V30 BEGIN ATOM
M  V30 1 C  26.7436 43.4813 84.7543 0
M  V30 2 N  28.0525 43.4794 84.8559 0
M  V30 3 N  28.3532 42.2368 85.2429 0
M  V30 4 C  29.7430 41.8677 85.4369 0
M  V30 5 C  27.2418 41.4500 85.3855 0
M  V30 6 C  26.1481 42.2428 85.0587 0
M  V30 7 C  24.7021 41.8707 85.0192 0
M  V30 8 C  23.7330 42.7940 84.6335 0
M  V30 9 C  22.3950 42.4416 84.4908 0
M  V30 10 C  24.2888 40.5875 85.3629 0
M  V30 11 N  22.9519 40.2637 85.3363 0
M  V30 12 C  21.9804 41.1629 84.8680 0
M  V30 13 C  22.2285 39.1605 85.7104 0
M  V30 14 C  20.9035 39.4297 85.4061 0
M  V30 15 N  20.7380 40.6160 84.8743 0
M  V30 16 S  22.9511 37.7070 86.4286 0
M  V30 17 O  21.9584 37.0965 87.3187 0
M  V30 18 O  24.3159 38.0336 86.8437 0
M  V30 19 N  23.1128 36.7020 85.0804 0
M  V30 20 N  21.9866 36.2377 84.5077 0
M  V30 21 C  22.3487 35.6049 83.4269 0
M  V30 22 C  24.2379 36.4360 84.3285 0
M  V30 23 C  23.7571 35.6517 83.2622 0
M  V30 24 C  25.5946 36.7814 84.4216 0
M  V30 25 C  26.4292 36.2817 83.4173 0
M  V30 26 C  25.8715 35.4526 82.4434 0
M  V30 27 N  24.5556 35.1566 82.3279 0
M  V30 28 C  27.8813 36.6174 83.3635 0
M  V30 29 C  28.8875 35.9558 82.6730 0
M  V30 30 N  30.0447 36.6447 82.9130 0
M  V30 31 C  31.3755 36.3498 82.4150 0
M  V30 32 N  29.8588 37.6832 83.7346 0
M  V30 33 C  28.5710 37.6652 83.9976 0
M  V30 34 H  26.2205 44.3738 84.4437 0
M  V30 35 H  29.8133 40.8420 85.7996 0
M  V30 36 H  30.2696 41.9495 84.4870 0
M  V30 37 H  30.2035 42.5392 86.1627 0
M  V30 38 H  27.3280 40.4200 85.6941 0
M  V30 39 H  24.0130 43.8148 84.4444 0
M  V30 40 H  21.6830 43.1568 84.1322 0
M  V30 41 H  24.9920 39.8388 85.6760 0
M  V30 42 H  20.0700 38.7601 85.5689 0
M  V30 43 H  21.6190 35.1564 82.7790 0
M  V30 44 H  25.9841 37.3984 85.2138 0
M  V30 45 H  26.4832 35.0105 81.6867 0
M  V30 46 H  28.8878 35.0772 82.0435 0
M  V30 47 H  31.3222 35.5774 81.6448 0
M  V30 48 H  32.0007 35.9970 83.2362 0
M  V30 49 H  31.8119 37.2501 81.9808 0
M  V30 50 H  28.1318 38.4079 84.6439 0
M  V30 END ATOM
M  V30 BEGIN BOND
M  V30 1 2 1 2
M  V30 2 1 1 6
M  V30 3 1 1 34
M  V30 4 1 2 3
M  V30 5 1 3 4
M  V30 6 1 3 5
M  V30 7 1 4 35
M  V30 8 1 4 36
M  V30 9 1 4 37
M  V30 10 2 5 6
M  V30 11 1 5 38
M  V30 12 1 6 7
M  V30 13 1 7 8
M  V30 14 2 7 10
M  V30 15 2 8 9
M  V30 16 1 8 39
M  V30 17 1 9 12
M  V30 18 1 9 40
M  V30 19 1 10 11
M  V30 20 1 10 41
M  V30 21 1 11 12
M  V30 22 1 11 13
M  V30 23 2 12 15
M  V30 24 2 13 14
M  V30 25 1 13 16
M  V30 26 1 14 15
M  V30 27 1 14 42
M  V30 28 2 16 17
M  V30 29 2 16 18
M  V30 30 1 16 19
M  V30 31 1 19 20
M  V30 32 1 19 22
M  V30 33 2 20 21
M  V30 34 1 21 23
M  V30 35 1 21 43
M  V30 36 2 22 23
M  V30 37 1 22 24
M  V30 38 1 23 27
M  V30 39 2 24 25
M  V30 40 1 24 44
M  V30 41 1 25 26
M  V30 42 1 25 28
M  V30 43 2 26 27
M  V30 44 1 26 45
M  V30 45 2 28 29
M  V30 46 1 28 33
M  V30 47 1 29 30
M  V30 48 1 29 46
M  V30 49 1 30 31
M  V30 50 1 30 32
M  V30 51 1 31 47
M  V30 52 1 31 48
M  V30 53 1 31 49
M  V30 54 2 32 33
M  V30 55 1 33 50
M  V30 END BOND
M  V30 END CTAB
M  END
> <s_m_entry_id>
1790

> <s_m_entry_name>
result.8177

> <s_m_Source_Path>
D:\OneDrive - zju.edu.cn\DOC\A-Finished\LCK_VS\Planet\LCK-8617

> <s_m_Source_File>
glide-dock_SP_top1262_2_pv.maegz

> <i_m_Source_File_Index>
1790

> <PLANET_affinity>
8.701

> <i_lp_mmshare_version>
54117

> <i_f3d_flags>
0

> <s_epik_input>
W0NIM11uMW5bY0hdYyhbY0hdMSktYyhbY0hdMilbY0hdW2NIXWMobjIzKW5bY0hdYzNTKD1PKSg9TyluNG5bY0hdYyhjNDUpbltjSF1jKFtjSF01KS1jNltjSF1uKFtDSDNdKW5bY0hdNg==

> <s_epik_cmdline>
J2VwaWtfcHl0aG9uJywgJy1waCcsICc3LjAnLCAnLXRuJywgJzgnLCAnLW1hJywgJzUwMCcsICctaW1hZScsICc8aW5maWxlLm1hZT4nLCAnLW9tYWUnLCAnPG91dGZpbGUubWFlPic=

> <r_epik_Ionization_Penalty>
  0.0001

> <r_epik_Ionization_Penalty_Charging>
  0.0000

> <r_epik_Ionization_Penalty_Neutral>
  0.0001

> <r_epik_State_Penalty>
  0.0000

> <r_epik_Charging_Adjusted_Penalty>
4.71984e-05

> <i_epik_Tot_Q>
0

> <i_epik_Tot_abs_Q>
0

> <s_lp_Force_Field>
S-OPLS

> <r_lp_Energy>
18.2196

> <b_lp_Chiralities_Consistent>
1

> <s_lp_Variant>
O=S(N1N=CC2=NC=C(C3=CN(C)N=C3)C=C21)(C4=CN=C5C=CC(C6=CN(C)N=C6)=CN54)=O-1

> <s_i_glide_gridfile>
glide-grid_1

> <i_i_glide_lignum>
674

> <i_i_glide_rotatable_bonds>
4

> <r_i_docking_score>
-7.10908733718967

> <r_i_glide_ligand_efficiency>
-0.215426889005747

> <r_i_glide_ligand_efficiency_sa>
-0.690989141284786

> <r_i_glide_ligand_efficiency_ln>
-1.58102421490672

> <r_i_glide_gscore>
-7.10908733718967

> <r_i_glide_lipo>
-2.62961696859142

> <r_i_glide_hbond>
-0.259505083269689

> <r_i_glide_metal>
0

> <r_i_glide_rewards>
-1.34927306186552

> <r_i_glide_evdw>
-42.3109970092773

> <r_i_glide_ecoul>
-7.47799205780029

> <r_i_glide_erotb>
0.38121209263539

> <r_i_glide_esite>
-0.014655656964512

> <r_i_glide_emodel>
-72.2384241329919

> <r_i_glide_energy>
-49.7889890670776

> <r_i_glide_einternal>
1.81082761287689

> <i_i_glide_confnum>
19

> <i_i_glide_posenum>
180

> <r_i_glide_eff_state_penalty>
0

> <r_lp_tautomer_probability>
1

> <s_m_subgroup_title>
glide-dock_SP_top1262_2_pv

> <s_m_subgroupid>
glide-dock_SP_top1262_2_pv

> <b_m_subgroup_collapsed>
0

$$$$
O=C(C1=CN=C2C=C(OCCN3CCN(C)CC3)C=CN21)NC4=CC=CC5=C4C(C6CC6)=NN5CC7=NC(C)=CC=C7
                    3D
 Schrodinger Suite 2021-3.
  0  0  0     0  0            999 V3000
M  V30 BEGIN CTAB
M  V30 COUNTS 79 85 0 0 0
M  V30 BEGIN ATOM
M  V30 1 C  18.2622 38.3718 86.7337 0
M  V30 2 C  17.7056 37.4861 87.6571 0
M  V30 3 C  18.4304 36.3566 88.0456 0
M  V30 4 C  19.6834 36.1315 87.4885 0
M  V30 5 C  20.4997 34.8937 87.8052 0
M  V30 6 N  20.2316 36.9838 86.6020 0
M  V30 7 C  19.5311 38.0903 86.2241 0
M  V30 8 C  20.1967 39.0199 85.2083 0
M  V30 9 N  21.6391 38.8256 85.0620 0
M  V30 10 N  22.4893 39.7106 85.6115 0
M  V30 11 C  23.7044 39.2443 85.4639 0
M  V30 12 C  24.9176 40.0345 85.9197 0
M  V30 13 C  25.4736 41.1229 85.0336 0
M  V30 14 C  24.8196 41.4801 86.3561 0
M  V30 15 C  23.6699 37.9511 84.8435 0
M  V30 16 C  22.2974 37.7055 84.5872 0
M  V30 17 C  24.6124 36.9911 84.4344 0
M  V30 18 C  24.1444 35.7965 83.8621 0
M  V30 19 C  22.7889 35.5675 83.6447 0
M  V30 20 C  21.8346 36.5231 83.9878 0
M  V30 21 N  25.9811 37.2589 84.5706 0
M  V30 22 C  26.9128 36.9937 83.6380 0
M  V30 23 O  26.6960 36.4210 82.5687 0
M  V30 24 C  28.2370 37.4237 83.9848 0
M  V30 25 C  28.6583 38.4816 84.8022 0
M  V30 26 N  29.9609 38.6569 84.8282 0
M  V30 27 N  29.4081 36.9042 83.4784 0
M  V30 28 C  30.4490 37.6961 84.0005 0
M  V30 29 C  29.6621 35.8447 82.6462 0
M  V30 30 C  30.9704 35.5581 82.2914 0
M  V30 31 C  32.0328 36.3610 82.7344 0
M  V30 32 C  31.7738 37.4191 83.6126 0
M  V30 33 O  33.3440 36.1742 82.3349 0
M  V30 34 C  33.5708 35.2797 81.2475 0
M  V30 35 C  35.0083 35.3629 80.6928 0
M  V30 36 N  35.3181 34.3860 79.6304 0 CFG=1
M  V30 37 C  34.3773 34.4678 78.4947 0
M  V30 38 C  34.8253 33.5503 77.3353 0
M  V30 39 N  34.8831 32.0937 77.8599 0 CHG=1
M  V30 40 C  35.3143 31.1180 76.7438 0
M  V30 41 C  35.8528 32.0315 79.0640 0
M  V30 42 C  35.3407 33.0072 80.1477 0
M  V30 43 H  17.7195 39.2587 86.4359 0
M  V30 44 H  16.7308 37.6812 88.0800 0
M  V30 45 H  18.0461 35.6659 88.7747 0
M  V30 46 H  20.0858 34.3565 88.6568 0
M  V30 47 H  20.5040 34.2157 86.9503 0
M  V30 48 H  21.5341 35.1532 88.0402 0
M  V30 49 H  20.0003 40.0633 85.4666 0
M  V30 50 H  19.7370 38.8448 84.2344 0
M  V30 51 H  25.6464 39.4335 86.4652 0
M  V30 52 H  26.5558 41.2121 84.9325 0
M  V30 53 H  24.9507 41.3658 84.1070 0
M  V30 54 H  23.8479 41.9793 86.3464 0
M  V30 55 H  25.4411 41.8095 87.1890 0
M  V30 56 H  24.8443 35.0311 83.5674 0
M  V30 57 H  22.4750 34.6359 83.1959 0
M  V30 58 H  20.7839 36.3561 83.8056 0
M  V30 59 H  26.2620 37.7858 85.3796 0
M  V30 60 H  28.0135 39.1488 85.3573 0
M  V30 61 H  28.8220 35.2626 82.2911 0
M  V30 62 H  31.1311 34.7131 81.6444 0
M  V30 63 H  32.5886 38.0239 83.9764 0
M  V30 64 H  32.8833 35.5403 80.4430 0
M  V30 65 H  33.3462 34.2664 81.5811 0
M  V30 66 H  35.7286 35.2592 81.5066 0
M  V30 67 H  35.1795 36.3642 80.2974 0
M  V30 68 H  34.3145 35.4969 78.1374 0
M  V30 69 H  33.3673 34.1818 78.8004 0
M  V30 70 H  34.1067 33.5668 76.5126 0
M  V30 71 H  35.8170 33.8119 76.9583 0
M  V30 72 H  36.3109 31.4049 76.4016 0
M  V30 73 H  35.3117 30.1142 77.1695 0
M  V30 74 H  34.5784 31.1974 75.9436 0
M  V30 75 H  35.8516 30.9978 79.4218 0
M  V30 76 H  36.8509 32.2919 78.7069 0
M  V30 77 H  34.3493 32.6886 80.4780 0
M  V30 78 H  35.9904 32.9531 81.0224 0
M  V30 79 H  33.9572 31.8399 78.2048 0
M  V30 END ATOM
M  V30 BEGIN BOND
M  V30 1 2 1 2
M  V30 2 1 1 7
M  V30 3 1 1 43
M  V30 4 1 2 3
M  V30 5 1 2 44
M  V30 6 2 3 4
M  V30 7 1 3 45
M  V30 8 1 4 5
M  V30 9 1 4 6
M  V30 10 1 5 46
M  V30 11 1 5 47
M  V30 12 1 5 48
M  V30 13 2 6 7
M  V30 14 1 7 8
M  V30 15 1 8 9
M  V30 16 1 8 49
M  V30 17 1 8 50
M  V30 18 1 9 10
M  V30 19 1 9 16
M  V30 20 2 10 11
M  V30 21 1 11 12
M  V30 22 1 11 15
M  V30 23 1 12 13
M  V30 24 1 12 14
M  V30 25 1 12 51
M  V30 26 1 13 14
M  V30 27 1 13 52
M  V30 28 1 13 53
M  V30 29 1 14 54
M  V30 30 1 14 55
M  V30 31 2 15 16
M  V30 32 1 15 17
M  V30 33 1 16 20
M  V30 34 2 17 18
M  V30 35 1 17 21
M  V30 36 1 18 19
M  V30 37 1 18 56
M  V30 38 2 19 20
M  V30 39 1 19 57
M  V30 40 1 20 58
M  V30 41 1 21 22
M  V30 42 1 21 59
M  V30 43 2 22 23
M  V30 44 1 22 24
M  V30 45 2 24 25
M  V30 46 1 24 27
M  V30 47 1 25 26
M  V30 48 1 25 60
M  V30 49 2 26 28
M  V30 50 1 27 28
M  V30 51 1 27 29
M  V30 52 1 28 32
M  V30 53 2 29 30
M  V30 54 1 29 61
M  V30 55 1 30 31
M  V30 56 1 30 62
M  V30 57 2 31 32
M  V30 58 1 31 33
M  V30 59 1 32 63
M  V30 60 1 33 34
M  V30 61 1 34 35
M  V30 62 1 34 64
M  V30 63 1 34 65
M  V30 64 1 35 36
M  V30 65 1 35 66
M  V30 66 1 35 67
M  V30 67 1 36 37
M  V30 68 1 36 42
M  V30 69 1 37 38
M  V30 70 1 37 68
M  V30 71 1 37 69
M  V30 72 1 38 39
M  V30 73 1 38 70
M  V30 74 1 38 71
M  V30 75 1 39 40
M  V30 76 1 39 41
M  V30 77 1 39 79
M  V30 78 1 40 72
M  V30 79 1 40 73
M  V30 80 1 40 74
M  V30 81 1 41 42
M  V30 82 1 41 75
M  V30 83 1 41 76
M  V30 84 1 42 77
M  V30 85 1 42 78
M  V30 END BOND
M  V30 END CTAB
M  END
> <s_m_entry_id>
1799

> <s_m_entry_name>
result.4489

> <s_m_Source_Path>
D:\OneDrive - zju.edu.cn\DOC\A-Finished\LCK_VS\Planet\LCK-8617

> <s_m_Source_File>
glide-dock_SP_top1262_2_pv.maegz

> <i_m_Source_File_Index>
1799

> <PLANET_affinity>
9.125

> <i_lp_mmshare_version>
54117

> <i_f3d_flags>
0

> <s_epik_input>
W0NIM11jMVtjSF1bY0hdW2NIXWMobjEpW0NIMl1uKG5jMltDSF0zW0NIMl1bQ0gyXTMpYyhjMjQpW2NIXVtjSF1bY0hdYzRbTkhdQyg9TyljNVtjSF1uYyhuNTYpW2NIXWMoW2NIXVtjSF02KU9bQ0gyXVtDSDJdTjdbQ0gyXVtDSDJdTihbQ0gzXSlbQ0gyXVtDSDJdNw==

> <s_epik_cmdline>
J2VwaWtfcHl0aG9uJywgJy1waCcsICc3LjAnLCAnLXRuJywgJzgnLCAnLW1hJywgJzUwMCcsICctaW1hZScsICc8aW5maWxlLm1hZT4nLCAnLW9tYWUnLCAnPG91dGZpbGUubWFlPic=

> <r_epik_Ionization_Penalty>
  0.1348

> <r_epik_Ionization_Penalty_Charging>
  0.1230

> <r_epik_Ionization_Penalty_Neutral>
  0.0118

> <r_epik_State_Penalty>
  0.2070

> <r_epik_Charging_Adjusted_Penalty>
0.329939

> <i_epik_Tot_Q>
1

> <i_epik_Tot_abs_Q>
1

> <s_lp_Force_Field>
S-OPLS

> <r_lp_Energy>
78.412

> <b_lp_Chiralities_Consistent>
1

> <s_lp_Variant>
O=C(C1=CN=C2C=C(OCCN3CCN(C)CC3)C=CN21)NC4=CC=CC5=C4C(C6CC6)=NN5CC7=NC(C)=CC=C7-1

> <s_i_glide_gridfile>
glide-grid_1

> <i_i_glide_lignum>
464

> <i_i_glide_rotatable_bonds>
10

> <r_i_docking_score>
-7.10336528670321

> <r_i_glide_ligand_efficiency>
-0.169127744921505

> <r_i_glide_ligand_efficiency_sa>
-0.587892547004261

> <r_i_glide_ligand_efficiency_ln>
-1.49933740826719

> <r_i_glide_gscore>
-7.31036528670321

> <r_i_glide_lipo>
-3.35901288580205

> <r_i_glide_hbond>
-0.14651844785134

> <r_i_glide_metal>
0

> <r_i_glide_rewards>
-0.984330502233684

> <r_i_glide_evdw>
-52.3909301757812

> <r_i_glide_ecoul>
-4.82097911834717

> <r_i_glide_erotb>
0.565130583746814

> <r_i_glide_esite>
-0.0429406580218075

> <r_i_glide_emodel>
-83.5835908647602

> <r_i_glide_energy>
-57.2119092941284

> <r_i_glide_einternal>
9.27392196655273

> <i_i_glide_confnum>
368

> <i_i_glide_posenum>
63

> <r_i_glide_eff_state_penalty>
0.207

> <r_lp_tautomer_probability>
1

> <s_m_subgroup_title>
glide-dock_SP_top1262_2_pv

> <s_m_subgroupid>
glide-dock_SP_top1262_2_pv

> <b_m_subgroup_collapsed>
0

$$$$
CN1N=CC(C2=CN3C(C(N4CCN(C5=NC=C([C@@](C)(N)C6=CC=C(F)C=C6)C=N5)CC4)=NC=N3)=C2...
                    3D
 Schrodinger Suite 2021-3.
  0  0  0     0  0            999 V3000
M  V30 BEGIN CTAB
M  V30 COUNTS 64 69 0 0 0
M  V30 BEGIN ATOM
M  V30 1 C  33.5790 36.5543 81.8049 0
M  V30 2 N  32.3210 36.7710 82.4956 0
M  V30 3 N  32.3049 37.4772 83.6306 0
M  V30 4 C  31.0431 37.4808 83.9984 0
M  V30 5 C  30.2080 36.7786 83.1136 0
M  V30 6 C  31.0789 36.3257 82.1379 0
M  V30 7 C  28.7805 36.5721 83.1852 0
M  V30 8 C  28.0752 35.5519 82.5612 0
M  V30 9 C  27.8728 37.3472 83.8940 0
M  V30 10 C  26.5710 36.8085 83.6769 0
M  V30 11 N  26.7412 35.6693 82.8592 0
M  V30 12 C  25.2259 37.0680 84.0468 0
M  V30 13 N  24.2288 36.2090 83.6861 0
M  V30 14 C  24.5467 35.1592 82.9003 0
M  V30 15 N  25.7756 34.8285 82.4439 0
M  V30 16 N  24.8685 38.1669 84.8334 0
M  V30 17 C  25.5366 39.4721 84.7368 0
M  V30 18 C  25.5774 40.2732 86.0510 0
M  V30 19 N  24.5136 39.9694 87.0200 0
M  V30 20 C  23.2831 39.5065 86.3565 0
M  V30 21 C  23.4873 38.3921 85.2971 0
M  V30 22 C  24.5467 40.4608 88.3222 0
M  V30 23 N  23.3934 40.4063 89.0401 0
M  V30 24 C  23.4654 40.7595 90.3435 0
M  V30 25 C  24.6613 41.1571 90.9638 0
M  V30 26 C  25.7848 41.2277 90.1257 0
M  V30 27 N  25.7450 40.8832 88.8154 0
M  V30 28 C  24.7591 41.4290 92.4734 0 CFG=1
M  V30 29 C  25.9882 40.7054 93.0832 0
M  V30 30 N  25.0704 42.8369 92.6510 0
M  V30 31 C  23.4532 41.0453 93.2136 0
M  V30 32 C  23.2535 39.7249 93.6441 0
M  V30 33 C  22.0814 39.3575 94.2951 0
M  V30 34 C  21.0760 40.2967 94.4797 0
M  V30 35 F  19.9451 39.9565 95.1362 0
M  V30 36 C  21.2313 41.5952 94.0133 0
M  V30 37 C  22.4173 41.9755 93.3958 0
M  V30 38 H  33.4069 35.9860 80.8897 0
M  V30 39 H  34.0257 37.5163 81.5521 0
M  V30 40 H  34.2540 35.9958 82.4555 0
M  V30 41 H  30.7265 37.9816 84.9020 0
M  V30 42 H  30.9277 35.7412 81.2443 0
M  V30 43 H  28.4391 34.7509 81.9365 0
M  V30 44 H  28.1577 38.1946 84.4995 0
M  V30 45 H  23.7289 34.5106 82.6143 0
M  V30 46 H  24.9587 40.0744 84.0434 0
M  V30 47 H  26.5194 39.4313 84.2826 0
M  V30 48 H  25.4974 41.3284 85.7877 0
M  V30 49 H  26.5538 40.1033 86.5071 0
M  V30 50 H  22.5518 39.1544 87.0838 0
M  V30 51 H  22.8267 40.3714 85.8730 0
M  V30 52 H  23.0894 37.4611 85.7063 0
M  V30 53 H  22.8809 38.6639 84.4315 0
M  V30 54 H  22.5340 40.6740 90.8812 0
M  V30 55 H  26.7457 41.5452 90.5022 0
M  V30 56 H  26.0119 39.6489 92.8116 0
M  V30 57 H  26.9373 41.1283 92.7505 0
M  V30 58 H  25.9803 40.7559 94.1709 0
M  V30 59 H  24.3242 43.4057 92.2820 0
M  V30 60 H  25.1549 43.0387 93.6336 0
M  V30 61 H  24.0148 38.9720 93.5211 0
M  V30 62 H  21.9558 38.3521 94.6657 0
M  V30 63 H  20.4313 42.3102 94.1386 0
M  V30 64 H  22.5082 42.9910 93.0435 0
M  V30 END ATOM
M  V30 BEGIN BOND
M  V30 1 1 1 2
M  V30 2 1 1 38
M  V30 3 1 1 39
M  V30 4 1 1 40
M  V30 5 1 2 3
M  V30 6 1 2 6
M  V30 7 2 3 4
M  V30 8 1 4 5
M  V30 9 1 4 41
M  V30 10 2 5 6
M  V30 11 1 5 7
M  V30 12 1 6 42
M  V30 13 2 7 8
M  V30 14 1 7 9
M  V30 15 1 8 11
M  V30 16 1 8 43
M  V30 17 2 9 10
M  V30 18 1 9 44
M  V30 19 1 10 11
M  V30 20 1 10 12
M  V30 21 1 11 15
M  V30 22 2 12 13
M  V30 23 1 12 16
M  V30 24 1 13 14
M  V30 25 2 14 15
M  V30 26 1 14 45
M  V30 27 1 16 17
M  V30 28 1 16 21
M  V30 29 1 17 18
M  V30 30 1 17 46
M  V30 31 1 17 47
M  V30 32 1 18 19
M  V30 33 1 18 48
M  V30 34 1 18 49
M  V30 35 1 19 20
M  V30 36 1 19 22
M  V30 37 1 20 21
M  V30 38 1 20 50
M  V30 39 1 20 51
M  V30 40 1 21 52
M  V30 41 1 21 53
M  V30 42 2 22 23
M  V30 43 1 22 27
M  V30 44 1 23 24
M  V30 45 2 24 25
M  V30 46 1 24 54
M  V30 47 1 25 26
M  V30 48 1 25 28
M  V30 49 2 26 27
M  V30 50 1 26 55
M  V30 51 1 28 29
M  V30 52 1 28 30
M  V30 53 1 28 31
M  V30 54 1 29 56
M  V30 55 1 29 57
M  V30 56 1 29 58
M  V30 57 1 30 59
M  V30 58 1 30 60
M  V30 59 2 31 32
M  V30 60 1 31 37
M  V30 61 1 32 33
M  V30 62 1 32 61
M  V30 63 2 33 34
M  V30 64 1 33 62
M  V30 65 1 34 35
M  V30 66 1 34 36
M  V30 67 2 36 37
M  V30 68 1 36 63
M  V30 69 1 37 64
M  V30 END BOND
M  V30 END CTAB
M  END
> <s_m_entry_id>
1809

> <s_m_entry_name>
result.2444

> <s_m_Source_Path>
D:\OneDrive - zju.edu.cn\DOC\A-Finished\LCK_VS\Planet\LCK-8617

> <s_m_Source_File>
glide-dock_SP_top1262_2_pv.maegz

> <i_m_Source_File_Index>
1809

> <PLANET_affinity>
8.037

> <i_lp_mmshare_version>
54117

> <i_f3d_flags>
0

> <s_epik_input>
W0NIM11uMW5bY0hdYyhbY0hdMSktYyhbY0hdMilbY0hdbihjMjMpbltjSF1uYzNONFtDSDJdW0NIMl1OKFtDSDJdW0NIMl00KWM1bltjSF1jKFtjSF1uNSlbQ0BAXShbQ0gzXSkoW05IMl0pYzZbY0hdW2NIXWMoRilbY0hdW2NIXTY=

> <s_epik_cmdline>
J2VwaWtfcHl0aG9uJywgJy1waCcsICc3LjAnLCAnLXRuJywgJzgnLCAnLW1hJywgJzUwMCcsICctaW1hZScsICc8aW5maWxlLm1hZT4nLCAnLW9tYWUnLCAnPG91dGZpbGUubWFlPic=

> <r_epik_Ionization_Penalty>
  0.6580

> <r_epik_Ionization_Penalty_Charging>
  0.0000

> <r_epik_Ionization_Penalty_Neutral>
  0.6580

> <r_epik_State_Penalty>
  0.6392

> <r_epik_Charging_Adjusted_Penalty>
0.639201

> <i_epik_Tot_Q>
0

> <i_epik_Tot_abs_Q>
0

> <s_lp_Force_Field>
S-OPLS

> <r_lp_Energy>
66.5912

> <b_lp_Chiralities_Consistent>
1

> <s_lp_Variant>
CN1N=CC(C2=CN3C(C(N4CCN(C5=NC=C([C@@](C)(N)C6=CC=C(F)C=C6)C=N5)CC4)=NC=N3)=C2...-2

> <s_i_glide_gridfile>
glide-grid_1

> <i_i_glide_lignum>
1261

> <i_i_glide_rotatable_bonds>
5

> <r_i_docking_score>
-7.09827821578677

> <r_i_glide_ligand_efficiency>
-0.191845357183426

> <r_i_glide_ligand_efficiency_sa>
-0.639271290573984

> <r_i_glide_ligand_efficiency_ln>
-1.53945013775275

> <r_i_glide_gscore>
-7.73747821578677

> <r_i_glide_lipo>
-3.12196715572781

> <r_i_glide_hbond>
-0.32

> <r_i_glide_metal>
0

> <r_i_glide_rewards>
-1.87471949360738

> <r_i_glide_evdw>
-43.9193153381348

> <r_i_glide_ecoul>
-4.02411603927612

> <r_i_glide_erotb>
0.410500969041328

> <r_i_glide_esite>
-0.0317093626947544

> <r_i_glide_emodel>
-69.5658893951639

> <r_i_glide_energy>
-47.9434313774109

> <r_i_glide_einternal>
6.11024332046509

> <i_i_glide_confnum>
311

> <i_i_glide_posenum>
140

> <r_i_glide_eff_state_penalty>
0.6392

> <r_lp_tautomer_probability>
1

> <s_m_subgroup_title>
glide-dock_SP_top1262_2_pv

> <s_m_subgroupid>
glide-dock_SP_top1262_2_pv

> <b_m_subgroup_collapsed>
0

$$$$
O=C(NCCCNC1=NC(NC2=CC=CC(CN3CCOCC3)=C2)=NC=C1C4CC4)C5CCC5
                    3D
 Schrodinger Suite 2021-3.
  0  0  0     0  0            999 V3000
M  V30 BEGIN CTAB
M  V30 COUNTS 70 74 0 0 0
M  V30 BEGIN ATOM
M  V30 1 C  26.9012 41.7887 91.7223 0
M  V30 2 C  25.8703 41.6627 92.8558 0
M  V30 3 C  24.8822 41.1360 91.8027 0
M  V30 4 C  26.1198 40.6709 91.0030 0
M  V30 5 C  26.0489 40.8907 89.4774 0
M  V30 6 O  25.3362 41.7740 88.9973 0
M  V30 7 N  26.8823 40.1425 88.7335 0
M  V30 8 C  27.0326 40.2464 87.2811 0
M  V30 9 C  25.9010 39.5764 86.4790 0
M  V30 10 C  25.7358 38.0807 86.7840 0
M  V30 11 N  24.6474 37.4482 86.0438 0
M  V30 12 C  24.8303 36.7895 84.8135 0
M  V30 13 N  26.0828 36.7103 84.2983 0
M  V30 14 C  26.2603 36.0666 83.1220 0
M  V30 15 N  25.2581 35.4653 82.4303 0
M  V30 16 C  24.0030 35.5559 82.9517 0
M  V30 17 C  23.7304 36.2218 84.1505 0
M  V30 18 C  22.3080 36.2757 84.7108 0
M  V30 19 C  21.6417 37.5857 85.0756 0
M  V30 20 C  21.1258 36.7784 83.9122 0
M  V30 21 N  27.5431 35.9956 82.5469 0
M  V30 22 C  28.8158 36.4603 82.9570 0
M  V30 23 C  29.0166 37.2865 84.0738 0
M  V30 24 C  30.2911 37.7067 84.4433 0
M  V30 25 C  31.3923 37.3122 83.6957 0
M  V30 26 C  31.2279 36.5048 82.5703 0
M  V30 27 C  29.9385 36.0953 82.1986 0
M  V30 28 C  32.4489 36.1528 81.7215 0
M  V30 29 N  32.7655 37.1633 80.6988 0
M  V30 30 C  33.7137 36.6152 79.7158 0
M  V30 31 C  34.1302 37.6671 78.6632 0
M  V30 32 O  34.6757 38.8117 79.3068 0
M  V30 33 C  33.7306 39.4274 80.1750 0
M  V30 34 C  33.2614 38.4324 81.2630 0
M  V30 35 H  26.8609 42.7724 91.2411 0
M  V30 36 H  27.9330 41.5583 91.9876 0
M  V30 37 H  25.5870 42.5964 93.3429 0
M  V30 38 H  26.1353 40.9250 93.6178 0
M  V30 39 H  24.2031 40.3564 92.1421 0
M  V30 40 H  24.3030 41.9420 91.3443 0
M  V30 41 H  26.4823 39.6730 91.2617 0
M  V30 42 H  27.4696 39.4691 89.1993 0
M  V30 43 H  27.1558 41.2881 86.9772 0
M  V30 44 H  27.9750 39.7457 87.0464 0
M  V30 45 H  24.9598 40.0971 86.6639 0
M  V30 46 H  26.0947 39.7041 85.4126 0
M  V30 47 H  26.6794 37.5601 86.6175 0
M  V30 48 H  25.5576 37.9571 87.8525 0
M  V30 49 H  23.6979 37.6436 86.3228 0
M  V30 50 H  23.2141 35.0750 82.3874 0
M  V30 51 H  22.0897 35.4363 85.3737 0
M  V30 52 H  21.0548 37.6283 85.9953 0
M  V30 53 H  22.1626 38.5214 84.8687 0
M  V30 54 H  21.2857 37.1534 82.9033 0
M  V30 55 H  20.1564 36.2904 84.0186 0
M  V30 56 H  27.5451 35.5559 81.6315 0
M  V30 57 H  28.2097 37.6331 84.6930 0
M  V30 58 H  30.4246 38.3370 85.3112 0
M  V30 59 H  32.3791 37.6430 83.9918 0
M  V30 60 H  29.8156 35.4862 81.3155 0
M  V30 61 H  33.3179 36.0009 82.3671 0
M  V30 62 H  32.2446 35.1967 81.2400 0
M  V30 63 H  34.6015 36.2477 80.2331 0
M  V30 64 H  33.2830 35.7427 79.2241 0
M  V30 65 H  33.2843 37.9572 78.0359 0
M  V30 66 H  34.8814 37.2499 77.9938 0
M  V30 67 H  32.8833 39.8101 79.6060 0
M  V30 68 H  34.1992 40.2959 80.6409 0
M  V30 69 H  32.4866 38.9016 81.8684 0
M  V30 70 H  34.0922 38.2291 81.9395 0
M  V30 END ATOM
M  V30 BEGIN BOND
M  V30 1 1 1 2
M  V30 2 1 1 4
M  V30 3 1 1 35
M  V30 4 1 1 36
M  V30 5 1 2 3
M  V30 6 1 2 37
M  V30 7 1 2 38
M  V30 8 1 3 4
M  V30 9 1 3 39
M  V30 10 1 3 40
M  V30 11 1 4 5
M  V30 12 1 4 41
M  V30 13 2 5 6
M  V30 14 1 5 7
M  V30 15 1 7 8
M  V30 16 1 7 42
M  V30 17 1 8 9
M  V30 18 1 8 43
M  V30 19 1 8 44
M  V30 20 1 9 10
M  V30 21 1 9 45
M  V30 22 1 9 46
M  V30 23 1 10 11
M  V30 24 1 10 47
M  V30 25 1 10 48
M  V30 26 1 11 12
M  V30 27 1 11 49
M  V30 28 2 12 13
M  V30 29 1 12 17
M  V30 30 1 13 14
M  V30 31 2 14 15
M  V30 32 1 14 21
M  V30 33 1 15 16
M  V30 34 2 16 17
M  V30 35 1 16 50
M  V30 36 1 17 18
M  V30 37 1 18 19
M  V30 38 1 18 20
M  V30 39 1 18 51
M  V30 40 1 19 20
M  V30 41 1 19 52
M  V30 42 1 19 53
M  V30 43 1 20 54
M  V30 44 1 20 55
M  V30 45 1 21 22
M  V30 46 1 21 56
M  V30 47 2 22 23
M  V30 48 1 22 27
M  V30 49 1 23 24
M  V30 50 1 23 57
M  V30 51 2 24 25
M  V30 52 1 24 58
M  V30 53 1 25 26
M  V30 54 1 25 59
M  V30 55 2 26 27
M  V30 56 1 26 28
M  V30 57 1 27 60
M  V30 58 1 28 29
M  V30 59 1 28 61
M  V30 60 1 28 62
M  V30 61 1 29 30
M  V30 62 1 29 34
M  V30 63 1 30 31
M  V30 64 1 30 63
M  V30 65 1 30 64
M  V30 66 1 31 32
M  V30 67 1 31 65
M  V30 68 1 31 66
M  V30 69 1 32 33
M  V30 70 1 33 34
M  V30 71 1 33 67
M  V30 72 1 33 68
M  V30 73 1 34 69
M  V30 74 1 34 70
M  V30 END BOND
M  V30 END CTAB
M  END
> <s_m_entry_id>
1812

> <s_m_entry_name>
result.4192

> <s_m_Source_Path>
D:\OneDrive - zju.edu.cn\DOC\A-Finished\LCK_VS\Planet\LCK-8617

> <s_m_Source_File>
glide-dock_SP_top1262_2_pv.maegz

> <i_m_Source_File_Index>
1812

> <PLANET_affinity>
8.255

> <i_lp_mmshare_version>
54117

> <i_f3d_flags>
0

> <s_epik_input>
W0NIMl0xW0NIMl1bQ0gyXVtDSF0xQyg9TylbTkhdW0NIMl1bQ0gyXVtDSDJdW05IXWMybmMobltjSF1jMltDSF0zW0NIMl1bQ0gyXTMpW05IXWM0W2NIXVtjSF1bY0hdYyhbY0hdNClbQ0gyXU41W0NIMl1bQ0gyXU9bQ0gyXVtDSDJdNQ==

> <s_epik_cmdline>
J2VwaWtfcHl0aG9uJywgJy1waCcsICc3LjAnLCAnLXRuJywgJzgnLCAnLW1hJywgJzUwMCcsICctaW1hZScsICc8aW5maWxlLm1hZT4nLCAnLW9tYWUnLCAnPG91dGZpbGUubWFlPic=

> <r_epik_Ionization_Penalty>
  0.4516

> <r_epik_Ionization_Penalty_Charging>
  0.0000

> <r_epik_Ionization_Penalty_Neutral>
  0.4516

> <r_epik_State_Penalty>
  0.3654

> <r_epik_Charging_Adjusted_Penalty>
0.365439

> <i_epik_Tot_Q>
0

> <i_epik_Tot_abs_Q>
0

> <s_lp_Force_Field>
S-OPLS

> <r_lp_Energy>
58.1443

> <b_lp_Chiralities_Consistent>
1

> <s_lp_Variant>
O=C(NCCCNC1=NC(NC2=CC=CC(CN3CCOCC3)=C2)=NC=C1C4CC4)C5CCC5-1

> <s_i_glide_gridfile>
glide-grid_1

> <i_i_glide_lignum>
1016

> <i_i_glide_rotatable_bonds>
12

> <r_i_docking_score>
-7.09475177206225

> <r_i_glide_ligand_efficiency>
-0.208669169766537

> <r_i_glide_ligand_efficiency_sa>
-0.676007104143832

> <r_i_glide_ligand_efficiency_ln>
-1.56742966749514

> <r_i_glide_gscore>
-7.46015177206225

> <r_i_glide_lipo>
-3.2457392972336

> <r_i_glide_hbond>
-0.469240172030984

> <r_i_glide_metal>
0

> <r_i_glide_rewards>
-1.64364856862339

> <r_i_glide_evdw>
-44.7841529846191

> <r_i_glide_ecoul>
-3.74810099601746

> <r_i_glide_erotb>
0.719169979414435

> <r_i_glide_esite>
-0.0192709149551404

> <r_i_glide_emodel>
-69.8424645142019

> <r_i_glide_energy>
-48.5322539806366

> <r_i_glide_einternal>
3.66319990158081

> <i_i_glide_confnum>
647

> <i_i_glide_posenum>
61

> <r_i_glide_eff_state_penalty>
0.3654

> <r_lp_tautomer_probability>
1

> <s_m_subgroup_title>
glide-dock_SP_top1262_2_pv

> <s_m_subgroupid>
glide-dock_SP_top1262_2_pv

> <b_m_subgroup_collapsed>
0

$$$$
O=C(C1=C(C2=CC=C(O)C=C2)SC3=CC(O)=CC=C31)C4=CC=C(OCCN5CCCCC5)C=C4.Cl
                    3D
 Schrodinger Suite 2021-3.
  0  0  0     0  0            999 V3000
M  V30 BEGIN CTAB
M  V30 COUNTS 62 66 0 0 0
M  V30 BEGIN ATOM
M  V30 1 C  29.1664 37.3992 84.2969 0
M  V30 2 C  30.5234 37.2669 84.0146 0
M  V30 3 C  30.9332 36.4792 82.9445 0
M  V30 4 O  32.2639 36.3540 82.6591 0
M  V30 5 C  29.9949 35.8167 82.1627 0
M  V30 6 C  28.6427 35.9567 82.4441 0
M  V30 7 C  28.2034 36.7574 83.5045 0
M  V30 8 C  26.7264 36.9305 83.7810 0
M  V30 9 S  25.6807 35.5550 83.4522 0
M  V30 10 C  26.0257 38.0328 84.2982 0
M  V30 11 C  24.6249 37.7364 84.4442 0
M  V30 12 C  24.2821 36.4187 84.0213 0
M  V30 13 C  23.5718 38.5546 84.9128 0
M  V30 14 C  22.2595 38.0804 84.9306 0
M  V30 15 C  21.9547 36.7954 84.4954 0
M  V30 16 C  22.9568 35.9508 84.0378 0
M  V30 17 O  20.6555 36.3567 84.5040 0
M  V30 18 C  26.6145 39.3289 84.6402 0
M  V30 19 O  27.1862 39.9751 83.7601 0
M  V30 20 C  26.5781 39.7868 86.0726 0
M  V30 21 C  26.0830 38.9572 87.0895 0
M  V30 22 C  26.0620 39.3921 88.4044 0
M  V30 23 C  26.5539 40.6434 88.7488 0
M  V30 24 C  27.0763 41.4764 87.7514 0
M  V30 25 C  27.0835 41.0482 86.4225 0
M  V30 26 O  26.4827 40.9464 90.0890 0
M  V30 27 C  26.9190 42.2114 90.5713 0
M  V30 28 C  26.6001 42.2475 92.0798 0
M  V30 29 N  25.1131 41.8635 92.3046 0 CHG=1
M  V30 30 C  24.1901 43.0963 92.1191 0
M  V30 31 C  22.7231 42.6517 92.2564 0
M  V30 32 C  22.4580 41.9380 93.5926 0
M  V30 33 C  23.4182 40.7524 93.7999 0
M  V30 34 C  24.8965 41.1679 93.6697 0
M  V30 35 H  28.8780 38.0004 85.1447 0
M  V30 36 H  31.2550 37.7723 84.6269 0
M  V30 37 H  32.4199 35.7871 81.8987 0
M  V30 38 H  30.2997 35.1953 81.3351 0
M  V30 39 H  27.9361 35.4304 81.8245 0
M  V30 40 H  23.7705 39.5646 85.2399 0
M  V30 41 H  21.4706 38.7324 85.2807 0
M  V30 42 H  22.7081 34.9600 83.6845 0
M  V30 43 H  20.0428 37.0293 84.8122 0
M  V30 44 H  25.7093 37.9636 86.8881 0
M  V30 45 H  25.6582 38.7575 89.1726 0
M  V30 46 H  27.4778 42.4514 87.9887 0
M  V30 47 H  27.4894 41.7087 85.6664 0
M  V30 48 H  27.9920 42.3317 90.4101 0
M  V30 49 H  26.4105 43.0236 90.0486 0
M  V30 50 H  27.1998 41.4946 92.5941 0
M  V30 51 H  26.7864 43.2167 92.5507 0
M  V30 52 H  24.4684 43.8292 92.8823 0
M  V30 53 H  24.3912 43.5131 91.1325 0
M  V30 54 H  22.0712 43.5239 92.1695 0
M  V30 55 H  22.4606 41.9990 91.4209 0
M  V30 56 H  21.4238 41.5898 93.6316 0
M  V30 57 H  22.5691 42.6474 94.4156 0
M  V30 58 H  23.1939 39.9571 93.0866 0
M  V30 59 H  23.2480 40.3206 94.7883 0
M  V30 60 H  25.5571 40.2985 93.7059 0
M  V30 61 H  25.1929 41.8759 94.4429 0
M  V30 62 H  24.8771 41.1889 91.5874 0
M  V30 END ATOM
M  V30 BEGIN BOND
M  V30 1 2 1 2
M  V30 2 1 1 7
M  V30 3 1 1 35
M  V30 4 1 2 3
M  V30 5 1 2 36
M  V30 6 1 3 4
M  V30 7 2 3 5
M  V30 8 1 4 37
M  V30 9 1 5 6
M  V30 10 1 5 38
M  V30 11 2 6 7
M  V30 12 1 6 39
M  V30 13 1 7 8
M  V30 14 1 8 9
M  V30 15 2 8 10
M  V30 16 1 9 12
M  V30 17 1 10 11
M  V30 18 1 10 18
M  V30 19 2 11 12
M  V30 20 1 11 13
M  V30 21 1 12 16
M  V30 22 2 13 14
M  V30 23 1 13 40
M  V30 24 1 14 15
M  V30 25 1 14 41
M  V30 26 2 15 16
M  V30 27 1 15 17
M  V30 28 1 16 42
M  V30 29 1 17 43
M  V30 30 2 18 19
M  V30 31 1 18 20
M  V30 32 2 20 21
M  V30 33 1 20 25
M  V30 34 1 21 22
M  V30 35 1 21 44
M  V30 36 2 22 23
M  V30 37 1 22 45
M  V30 38 1 23 24
M  V30 39 1 23 26
M  V30 40 2 24 25
M  V30 41 1 24 46
M  V30 42 1 25 47
M  V30 43 1 26 27
M  V30 44 1 27 28
M  V30 45 1 27 48
M  V30 46 1 27 49
M  V30 47 1 28 29
M  V30 48 1 28 50
M  V30 49 1 28 51
M  V30 50 1 29 30
M  V30 51 1 29 34
M  V30 52 1 29 62
M  V30 53 1 30 31
M  V30 54 1 30 52
M  V30 55 1 30 53
M  V30 56 1 31 32
M  V30 57 1 31 54
M  V30 58 1 31 55
M  V30 59 1 32 33
M  V30 60 1 32 56
M  V30 61 1 32 57
M  V30 62 1 33 34
M  V30 63 1 33 58
M  V30 64 1 33 59
M  V30 65 1 34 60
M  V30 66 1 34 61
M  V30 END BOND
M  V30 END CTAB
M  END
> <s_m_entry_id>
1823

> <s_m_entry_name>
result.6226

> <s_m_Source_Path>
D:\OneDrive - zju.edu.cn\DOC\A-Finished\LCK_VS\Planet\LCK-8617

> <s_m_Source_File>
glide-dock_SP_top1262_2_pv.maegz

> <i_m_Source_File_Index>
1823

> <PLANET_affinity>
7.984

> <i_lp_mmshare_version>
54117

> <i_f3d_flags>
0

> <s_epik_input>
W2NIXTFbY0hdYyhbT0hdKVtjSF1jKGMxMilzYygtYyhbY0hdW2NIXTMpW2NIXVtjSF1jM1tPSF0pYzJDKD1PKWM0W2NIXVtjSF1jKFtjSF1bY0hdNClPW0NIMl1bQ0gyXU41W0NIMl1bQ0gyXVtDSDJdW0NIMl1bQ0gyXTU=

> <s_epik_cmdline>
J2VwaWtfcHl0aG9uJywgJy1waCcsICc3LjAnLCAnLXRuJywgJzgnLCAnLW1hJywgJzUwMCcsICctaW1hZScsICc8aW5maWxlLm1hZT4nLCAnLW9tYWUnLCAnPG91dGZpbGUubWFlPic=

> <r_epik_Ionization_Penalty>
  0.0212

> <r_epik_Ionization_Penalty_Charging>
  0.0122

> <r_epik_Ionization_Penalty_Neutral>
  0.0089

> <r_epik_State_Penalty>
  0.0152

> <r_epik_Charging_Adjusted_Penalty>
0.0274416

> <i_epik_Tot_Q>
1

> <i_epik_Tot_abs_Q>
1

> <s_lp_Force_Field>
S-OPLS

> <r_lp_Energy>
54.7656

> <b_lp_Chiralities_Consistent>
1

> <s_lp_Variant>
O=C(C1=C(C2=CC=C(O)C=C2)SC3=CC(O)=CC=C31)C4=CC=C(OCCN5CCCCC5)C=C4.Cl-1

> <s_i_glide_gridfile>
glide-grid_1

> <i_i_glide_lignum>
1313

> <i_i_glide_rotatable_bonds>
9

> <r_i_docking_score>
-7.09197816826188

> <r_i_glide_ligand_efficiency>
-0.208587593184173

> <r_i_glide_ligand_efficiency_sa>
-0.67574282768521

> <r_i_glide_ligand_efficiency_ln>
-1.56681690061869

> <r_i_glide_gscore>
-7.10717816826188

> <r_i_glide_lipo>
-3.86724312256497

> <r_i_glide_hbond>
-0.32

> <r_i_glide_metal>
0

> <r_i_glide_rewards>
-0.400760481188963

> <r_i_glide_evdw>
-39.9547576904297

> <r_i_glide_ecoul>
-7.06997680664062

> <r_i_glide_erotb>
0.539059841009625

> <r_i_glide_esite>
0

> <r_i_glide_emodel>
-70.8964549879062

> <r_i_glide_energy>
-47.0247344970703

> <r_i_glide_einternal>
6.2529673576355

> <i_i_glide_confnum>
42

> <i_i_glide_posenum>
363

> <r_i_glide_eff_state_penalty>
0.0152

> <r_lp_tautomer_probability>
1

> <s_m_subgroup_title>
glide-dock_SP_top1262_2_pv

> <s_m_subgroupid>
glide-dock_SP_top1262_2_pv

> <b_m_subgroup_collapsed>
0

$$$$
O=C(O1)/C2=C([C@H]3CCC(O)=O)/N=C([C@H]3C)/C=C(C(C)=C/4C=C)\NC4=C/C5=N/C(C(CC)...
                    3D
 Schrodinger Suite 2021-3.
  0  0  0     0  0            999 V3000
M  V30 BEGIN CTAB
M  V30 COUNTS 74 79 0 0 0
M  V30 BEGIN ATOM
M  V30 1 O  22.5136 36.1310 84.2025 0
M  V30 2 C  23.7062 36.3577 84.0481 0
M  V30 3 O  24.3790 35.4028 83.3731 0
M  V30 4 C  25.6993 35.3633 83.0772 0
M  V30 5 O  26.0831 34.3889 82.4435 0
M  V30 6 C  26.4710 36.5113 83.5737 0
M  V30 7 C  25.8715 37.5715 84.2227 0
M  V30 8 N  26.8817 38.4504 84.5194 0
M  V30 9 C  27.8592 36.7489 83.4820 0
M  V30 10 C  28.9102 35.8624 82.8302 0
M  V30 11 C  28.1065 37.9443 84.1158 0
M  V30 12 C  29.3875 38.4974 84.3204 0
M  V30 13 C  29.6639 39.7674 84.8531 0
M  V30 14 C  30.8861 40.2949 85.1986 0
M  V30 15 C  32.2229 39.5759 85.1003 0
M  V30 16 C  32.4849 38.6824 86.3221 0
M  V30 17 C  30.6692 41.6113 85.6719 0
M  V30 18 C  31.7208 42.5706 86.2000 0
M  V30 19 N  28.7316 40.7432 85.0958 0 CHG=1
M  V30 20 C  29.3248 41.8840 85.5699 0
M  V30 21 C  28.6706 43.0971 85.8533 0
M  V30 22 C  27.2770 43.3371 85.8166 0
M  V30 23 N  26.2946 42.3849 85.6213 0
M  V30 24 C  26.6215 44.5496 85.9552 0
M  V30 25 C  27.1940 45.8716 86.2076 0
M  V30 26 C  28.2776 46.1963 86.9335 0
M  V30 27 C  25.2364 44.3084 85.7901 0
M  V30 28 C  24.1252 45.3479 85.8317 0
M  V30 29 C  25.0513 42.9578 85.6083 0
M  V30 30 C  23.8110 42.3152 85.4565 0
M  V30 31 C  23.5612 40.9583 85.2577 0
M  V30 32 N  24.4556 39.9395 85.1420 0
M  V30 33 C  23.7885 38.7684 84.9040 0
M  V30 34 C  24.4617 37.6099 84.4435 0
M  V30 35 C  22.1391 40.4850 85.1487 0 CFG=1
M  V30 36 C  21.3352 41.1094 83.9937 0
M  V30 37 C  22.2814 38.9757 85.0510 0 CFG=2
M  V30 38 C  21.5664 38.2504 86.2317 0
M  V30 39 C  20.0125 38.4006 86.2412 0
M  V30 40 C  19.3113 37.9548 84.9343 0
M  V30 41 O  19.6208 36.8454 84.4437 0 CHG=-1
M  V30 42 O  18.4694 38.7371 84.4354 0
M  V30 43 H  26.7197 39.3050 85.0275 0
M  V30 44 H  29.5626 35.4009 83.5716 0
M  V30 45 H  29.5485 36.4286 82.1508 0
M  V30 46 H  28.4930 35.0517 82.2346 0
M  V30 47 H  30.2377 37.8836 84.0588 0
M  V30 48 H  32.2712 38.9707 84.1946 0
M  V30 49 H  33.0427 40.2865 84.9950 0
M  V30 50 H  33.4414 38.1665 86.2356 0
M  V30 51 H  31.7079 37.9250 86.4356 0
M  V30 52 H  32.5051 39.2687 87.2418 0
M  V30 53 H  31.8294 43.4435 85.5563 0
M  V30 54 H  32.7074 42.1185 86.2896 0
M  V30 55 H  31.4595 42.9395 87.1919 0
M  V30 56 H  29.3193 43.9296 86.0686 0
M  V30 57 H  26.4347 41.3919 85.5386 0
M  V30 58 H  26.6508 46.6770 85.7344 0
M  V30 59 H  28.8653 45.4584 87.4582 0
M  V30 60 H  28.5908 47.2266 87.0216 0
M  V30 61 H  23.6854 45.4925 84.8450 0
M  V30 62 H  24.4562 46.3265 86.1760 0
M  V30 63 H  23.3136 45.0537 86.4978 0
M  V30 64 H  22.9402 42.9535 85.4986 0
M  V30 65 H  21.6310 40.7671 86.0725 0
M  V30 66 H  21.3237 42.1982 84.0370 0
M  V30 67 H  20.2979 40.7814 84.0430 0
M  V30 68 H  21.7452 40.8266 83.0241 0
M  V30 69 H  21.8310 38.6319 84.1190 0
M  V30 70 H  21.8105 37.1904 86.2535 0
M  V30 71 H  21.9618 38.6282 87.1761 0
M  V30 72 H  19.5990 37.8050 87.0558 0
M  V30 73 H  19.7468 39.4323 86.4791 0
M  V30 74 H  27.7584 40.6675 84.8586 0
M  V30 END ATOM
M  V30 BEGIN BOND
M  V30 1 2 1 2
M  V30 2 1 2 3
M  V30 3 1 2 34
M  V30 4 1 3 4
M  V30 5 2 4 5
M  V30 6 1 4 6
M  V30 7 2 6 7
M  V30 8 1 6 9
M  V30 9 1 7 8
M  V30 10 1 7 34
M  V30 11 1 8 11
M  V30 12 1 8 43
M  V30 13 1 9 10
M  V30 14 2 9 11
M  V30 15 1 10 44
M  V30 16 1 10 45
M  V30 17 1 10 46
M  V30 18 1 11 12
M  V30 19 2 12 13
M  V30 20 1 12 47
M  V30 21 1 13 14
M  V30 22 1 13 19
M  V30 23 1 14 15
M  V30 24 2 14 17
M  V30 25 1 15 16
M  V30 26 1 15 48
M  V30 27 1 15 49
M  V30 28 1 16 50
M  V30 29 1 16 51
M  V30 30 1 16 52
M  V30 31 1 17 18
M  V30 32 1 17 20
M  V30 33 1 18 53
M  V30 34 1 18 54
M  V30 35 1 18 55
M  V30 36 2 19 20
M  V30 37 1 19 74
M  V30 38 1 20 21
M  V30 39 2 21 22
M  V30 40 1 21 56
M  V30 41 1 22 23
M  V30 42 1 22 24
M  V30 43 1 23 29
M  V30 44 1 23 57
M  V30 45 1 24 25
M  V30 46 2 24 27
M  V30 47 2 25 26
M  V30 48 1 25 58
M  V30 49 1 26 59
M  V30 50 1 26 60
M  V30 51 1 27 28
M  V30 52 1 27 29
M  V30 53 1 28 61
M  V30 54 1 28 62
M  V30 55 1 28 63
M  V30 56 2 29 30
M  V30 57 1 30 31
M  V30 58 1 30 64
M  V30 59 2 31 32
M  V30 60 1 31 35
M  V30 61 1 32 33
M  V30 62 2 33 34
M  V30 63 1 33 37
M  V30 64 1 35 36
M  V30 65 1 35 37
M  V30 66 1 35 65
M  V30 67 1 36 66
M  V30 68 1 36 67
M  V30 69 1 36 68
M  V30 70 1 37 38
M  V30 71 1 37 69
M  V30 72 1 38 39
M  V30 73 1 38 70
M  V30 74 1 38 71
M  V30 75 1 39 40
M  V30 76 1 39 72
M  V30 77 1 39 73
M  V30 78 1 40 41
M  V30 79 2 40 42
M  V30 END BOND
M  V30 END CTAB
M  END
> <s_m_entry_id>
1824

> <s_m_entry_name>
result.4964

> <s_m_Source_Path>
D:\OneDrive - zju.edu.cn\DOC\A-Finished\LCK_VS\Planet\LCK-8617

> <s_m_Source_File>
glide-dock_SP_top1262_2_pv.maegz

> <i_m_Source_File_Index>
1824

> <PLANET_affinity>
11.164

> <i_lp_mmshare_version>
54117

> <i_f3d_flags>
0

> <s_epik_input>
Tz1jMW9jKD1PKWMoYzJjMTMpYzRuYyhbQ0BASF0oW0NIM10pW0NAQEhdNFtDSDJdW0NIMl1DKD1PKVtPSF0pW2NIXWM1W25IXWMoYyhbQ0hdPVtDSDJdKWM1W0NIM10pW2NIXWM2YyhbQ0gzXSljKFtDSDJdW0NIM10pYyhuNilbY0hdYyhbbkhdMiljM1tDSDNd

> <s_epik_cmdline>
J2VwaWtfcHl0aG9uJywgJy1waCcsICc3LjAnLCAnLXRuJywgJzgnLCAnLW1hJywgJzUwMCcsICctaW1hZScsICc8aW5maWxlLm1hZT4nLCAnLW9tYWUnLCAnPG91dGZpbGUubWFlPic=

> <r_epik_Ionization_Penalty>
  0.0037

> <r_epik_Ionization_Penalty_Charging>
  0.0037

> <r_epik_Ionization_Penalty_Neutral>
  0.0000

> <r_epik_State_Penalty>
  0.0026

> <r_epik_Charging_Adjusted_Penalty>
0.00625221

> <i_epik_Tot_Q>
0

> <i_epik_Tot_abs_Q>
2

> <s_lp_Force_Field>
S-OPLS

> <r_lp_Energy>
23.5393

> <b_lp_Chiralities_Consistent>
1

> <s_lp_Variant>
O=C(O1)/C2=C([C@H]3CCC(O)=O)/N=C([C@H]3C)/C=C(C(C)=C/4C=C)\NC4=C/C5=N/C(C(CC)...-1

> <s_i_glide_gridfile>
glide-grid_1

> <i_i_glide_lignum>
152

> <i_i_glide_rotatable_bonds>
5

> <r_i_docking_score>
-7.09098853352608

> <r_i_glide_ligand_efficiency>
-0.16883306032205

> <r_i_glide_ligand_efficiency_sa>
-0.586868215485993

> <r_i_glide_ligand_efficiency_ln>
-1.49672499453337

> <r_i_glide_gscore>
-7.09358853352608

> <r_i_glide_lipo>
-2.46357618183139

> <r_i_glide_hbond>
-0.520125613635595

> <r_i_glide_metal>
0

> <r_i_glide_rewards>
-0.80551506630215

> <r_i_glide_evdw>
-44.447624206543

> <r_i_glide_ecoul>
-7.92921543121338

> <r_i_glide_erotb>
0.111468226620172

> <r_i_glide_esite>
-0.00407637336796521

> <r_i_glide_emodel>
-75.0695542055447

> <r_i_glide_energy>
-52.3768396377563

> <r_i_glide_einternal>
1.39344155788422

> <i_i_glide_confnum>
28

> <i_i_glide_posenum>
208

> <r_i_glide_eff_state_penalty>
0.0026

> <s_m_subgroup_title>
glide-dock_SP_top1262_2_pv

> <s_m_subgroupid>
glide-dock_SP_top1262_2_pv

> <b_m_subgroup_collapsed>
0

$$$$
O=C(NC1=C(N2CCN(CC3=CC=CC=N3)CC2)C=CC(C(F)(F)F)=C1)C4=CC=C(O4)C5=CC=NC=C5
                    3D
 Schrodinger Suite 2021-3.
  0  0  0     0  0            999 V3000
M  V30 BEGIN CTAB
M  V30 COUNTS 62 66 0 0 0
M  V30 BEGIN ATOM
M  V30 1 C  27.5069 36.3570 83.2438 0
M  V30 2 C  26.7972 35.3079 82.6573 0
M  V30 3 N  25.4701 35.1104 82.8434 0
M  V30 4 C  24.8193 35.9658 83.6702 0
M  V30 5 C  25.4609 37.0167 84.3282 0
M  V30 6 C  26.8336 37.2164 84.1198 0
M  V30 7 C  27.5868 38.2633 84.8710 0
M  V30 8 O  26.9220 38.9004 85.8710 0
M  V30 9 C  28.8960 38.7324 84.8419 0
M  V30 10 C  29.0331 39.6434 85.8944 0
M  V30 11 C  27.7916 39.7348 86.5100 0
M  V30 12 C  27.3512 40.4438 87.6860 0
M  V30 13 O  28.1463 40.9223 88.4916 0
M  V30 14 N  26.0086 40.4582 87.8021 0
M  V30 15 C  25.1581 40.7878 88.8753 0
M  V30 16 C  23.7916 41.0792 88.6125 0
M  V30 17 C  22.9791 41.4113 89.7106 0
M  V30 18 C  23.4753 41.4501 91.0113 0
M  V30 19 C  24.8156 41.1631 91.2650 0
M  V30 20 C  25.3795 41.1955 92.6867 0
M  V30 21 F  26.4848 41.9374 92.7218 0
M  V30 22 F  24.5113 41.7013 93.5665 0
M  V30 23 F  25.6836 39.9563 93.0667 0
M  V30 24 C  25.6487 40.8424 90.1913 0
M  V30 25 N  23.2158 41.0648 87.3271 0
M  V30 26 C  23.5340 40.1093 86.2420 0
M  V30 27 C  22.3755 39.1734 85.8587 0
M  V30 28 N  21.1284 40.0010 85.4860 0 CHG=1
M  V30 29 C  20.7816 40.9076 86.6868 0
M  V30 30 C  22.0021 41.8190 86.9441 0
M  V30 31 C  19.9614 39.0766 85.0554 0
M  V30 32 C  19.4975 38.0633 86.0953 0
M  V30 33 C  20.1311 36.8225 86.2482 0
M  V30 34 C  19.6834 35.9651 87.2551 0
M  V30 35 C  18.5955 36.3473 88.0433 0
M  V30 36 C  17.9940 37.5838 87.8027 0
M  V30 37 N  18.4386 38.4433 86.8547 0
M  V30 38 H  28.5676 36.4552 83.0674 0
M  V30 39 H  27.3117 34.5847 82.0430 0
M  V30 40 H  23.7647 35.7783 83.8123 0
M  V30 41 H  24.9073 37.6469 85.0058 0
M  V30 42 H  29.6790 38.4149 84.1681 0
M  V30 43 H  29.9342 40.1637 86.1867 0
M  V30 44 H  25.5204 40.2159 86.9562 0
M  V30 45 H  21.9329 41.6322 89.5765 0
M  V30 46 H  22.8056 41.7060 91.8196 0
M  V30 47 H  26.6829 40.6171 90.4009 0
M  V30 48 H  23.9284 40.6477 85.3783 0
M  V30 49 H  24.3110 39.4148 86.5437 0
M  V30 50 H  22.1178 38.5224 86.6956 0
M  V30 51 H  22.6185 38.5654 84.9861 0
M  V30 52 H  20.5566 40.2645 87.5385 0
M  V30 53 H  19.8859 41.4753 86.4292 0
M  V30 54 H  21.7391 42.5600 87.6993 0
M  V30 55 H  22.2287 42.4285 86.0665 0
M  V30 56 H  19.1549 39.7574 84.7788 0
M  V30 57 H  20.3089 38.5760 84.1499 0
M  V30 58 H  20.9651 36.5345 85.6237 0
M  V30 59 H  20.1595 35.0067 87.4119 0
M  V30 60 H  18.2242 35.6942 88.8197 0
M  V30 61 H  17.1434 37.9124 88.3862 0
M  V30 62 H  21.3700 40.6077 84.7133 0
M  V30 END ATOM
M  V30 BEGIN BOND
M  V30 1 2 1 2
M  V30 2 1 1 6
M  V30 3 1 1 38
M  V30 4 1 2 3
M  V30 5 1 2 39
M  V30 6 2 3 4
M  V30 7 1 4 5
M  V30 8 1 4 40
M  V30 9 2 5 6
M  V30 10 1 5 41
M  V30 11 1 6 7
M  V30 12 1 7 8
M  V30 13 2 7 9
M  V30 14 1 8 11
M  V30 15 1 9 10
M  V30 16 1 9 42
M  V30 17 2 10 11
M  V30 18 1 10 43
M  V30 19 1 11 12
M  V30 20 2 12 13
M  V30 21 1 12 14
M  V30 22 1 14 15
M  V30 23 1 14 44
M  V30 24 1 15 16
M  V30 25 2 15 24
M  V30 26 2 16 17
M  V30 27 1 16 25
M  V30 28 1 17 18
M  V30 29 1 17 45
M  V30 30 2 18 19
M  V30 31 1 18 46
M  V30 32 1 19 20
M  V30 33 1 19 24
M  V30 34 1 20 21
M  V30 35 1 20 22
M  V30 36 1 20 23
M  V30 37 1 24 47
M  V30 38 1 25 26
M  V30 39 1 25 30
M  V30 40 1 26 27
M  V30 41 1 26 48
M  V30 42 1 26 49
M  V30 43 1 27 28
M  V30 44 1 27 50
M  V30 45 1 27 51
M  V30 46 1 28 29
M  V30 47 1 28 31
M  V30 48 1 28 62
M  V30 49 1 29 30
M  V30 50 1 29 52
M  V30 51 1 29 53
M  V30 52 1 30 54
M  V30 53 1 30 55
M  V30 54 1 31 32
M  V30 55 1 31 56
M  V30 56 1 31 57
M  V30 57 2 32 33
M  V30 58 1 32 37
M  V30 59 1 33 34
M  V30 60 1 33 58
M  V30 61 2 34 35
M  V30 62 1 34 59
M  V30 63 1 35 36
M  V30 64 1 35 60
M  V30 65 2 36 37
M  V30 66 1 36 61
M  V30 END BOND
M  V30 END CTAB
M  END
> <s_m_entry_id>
1848

> <s_m_entry_name>
result.1802

> <s_m_Source_Path>
D:\OneDrive - zju.edu.cn\DOC\A-Finished\LCK_VS\Planet\LCK-8617

> <s_m_Source_File>
glide-dock_SP_top1262_2_pv.maegz

> <i_m_Source_File_Index>
1848

> <PLANET_affinity>
7.419

> <i_lp_mmshare_version>
54117

> <i_f3d_flags>
0

> <s_epik_input>
W2NIXTFbY0hdbltjSF1bY0hdYzEtYzJvYyhbY0hdW2NIXTIpQyg9TylbTkhdYzNjKFtjSF1bY0hdYyhDKEYpKEYpRilbY0hdMylONFtDSDJdW0NIMl1OKFtDSDJdW0NIMl00KVtDSDJdYzVbY0hdW2NIXVtjSF1bY0hdbjU=

> <s_epik_cmdline>
J2VwaWtfcHl0aG9uJywgJy1waCcsICc3LjAnLCAnLXRuJywgJzgnLCAnLW1hJywgJzUwMCcsICctaW1hZScsICc8aW5maWxlLm1hZT4nLCAnLW9tYWUnLCAnPG91dGZpbGUubWFlPic=

> <r_epik_Ionization_Penalty>
  0.0674

> <r_epik_Ionization_Penalty_Charging>
  0.0616

> <r_epik_Ionization_Penalty_Neutral>
  0.0059

> <r_epik_State_Penalty>
  0.0577

> <r_epik_Charging_Adjusted_Penalty>
0.119308

> <i_epik_Tot_Q>
1

> <i_epik_Tot_abs_Q>
1

> <s_lp_Force_Field>
S-OPLS

> <r_lp_Energy>
72.48

> <b_lp_Chiralities_Consistent>
1

> <s_lp_Variant>
O=C(NC1=C(N2CCN(CC3=CC=CC=N3)CC2)C=CC(C(F)(F)F)=C1)C4=CC=C(O4)C5=CC=NC=C5-1

> <s_i_glide_gridfile>
glide-grid_1

> <i_i_glide_lignum>
2062

> <i_i_glide_rotatable_bonds>
8

> <r_i_docking_score>
-7.07737537812422

> <r_i_glide_ligand_efficiency>
-0.191280415624979

> <r_i_glide_ligand_efficiency_sa>
-0.637388779970288

> <r_i_glide_ligand_efficiency_ln>
-1.53491680229578

> <r_i_glide_gscore>
-7.13507537812422

> <r_i_glide_lipo>
-3.2091382438877

> <r_i_glide_hbond>
-0.0780952544430502

> <r_i_glide_metal>
0

> <r_i_glide_rewards>
-1.91397221499034

> <r_i_glide_evdw>
-46.2715339660645

> <r_i_glide_ecoul>
-1.14297032356262

> <r_i_glide_erotb>
0.554228954467189

> <r_i_glide_esite>
-0.00307637243270386

> <r_i_glide_emodel>
-65.1283590903189

> <r_i_glide_energy>
-47.4145042896271

> <r_i_glide_einternal>
11.1036338806152

> <i_i_glide_confnum>
184

> <i_i_glide_posenum>
31

> <r_i_glide_eff_state_penalty>
0.0577

> <s_m_subgroup_title>
glide-dock_SP_top1262_2_pv

> <s_m_subgroupid>
glide-dock_SP_top1262_2_pv

> <b_m_subgroup_collapsed>
0

$$$$
O=C(C1=C(C=C(OC2=CC=CC=C2)C=C1)Cl)C3=CNC4=NC=NC(N[C@@H]5CC[C@@H](CO)OC5)=C34
                    3D
 Schrodinger Suite 2021-3.
  0  0  0     0  0            999 V3000
M  V30 BEGIN CTAB
M  V30 COUNTS 57 61 0 0 0
M  V30 BEGIN ATOM
M  V30 1 O  18.8830 40.2787 87.4180 0
M  V30 2 C  18.7356 39.0191 86.7878 0
M  V30 3 C  20.0618 38.4524 86.2383 0 CFG=1
M  V30 4 O  20.5419 39.2807 85.1732 0
M  V30 5 C  21.7200 38.8111 84.5233 0
M  V30 6 C  21.1409 38.2473 87.3347 0
M  V30 7 C  22.5089 37.8458 86.7549 0
M  V30 8 C  22.8735 38.7267 85.5484 0 CFG=1
M  V30 9 N  24.1466 38.3084 84.9473 0
M  V30 10 C  24.4348 37.1202 84.2547 0
M  V30 11 N  23.4353 36.2221 84.0392 0
M  V30 12 C  23.7011 35.1594 83.2435 0
M  V30 13 N  24.8828 34.8371 82.6658 0
M  V30 14 C  25.7254 36.9135 83.6986 0
M  V30 15 C  25.8473 35.7213 82.9200 0
M  V30 16 C  27.0185 37.5855 83.6190 0
M  V30 17 C  27.8312 36.7474 82.8682 0
M  V30 18 N  27.1307 35.6517 82.4437 0
M  V30 19 C  27.4625 38.8792 84.1491 0
M  V30 20 O  28.3514 39.5060 83.5701 0
M  V30 21 C  26.8484 39.4046 85.3980 0
M  V30 22 C  26.2139 40.6617 85.4563 0
M  V30 23 Cl 26.0833 41.7009 84.0764 0
M  V30 24 C  25.6173 41.0804 86.6475 0
M  V30 25 C  25.6475 40.2670 87.7803 0
M  V30 26 C  26.2668 39.0205 87.7192 0
M  V30 27 C  26.8575 38.5888 86.5370 0
M  V30 28 O  25.0588 40.6852 88.9480 0
M  V30 29 C  25.8338 41.2421 89.9443 0
M  V30 30 C  25.3577 41.1535 91.2535 0
M  V30 31 C  26.0839 41.7053 92.3056 0
M  V30 32 C  27.2818 42.3645 92.0394 0
M  V30 33 C  27.7619 42.4735 90.7383 0
M  V30 34 C  27.0393 41.9135 89.6899 0
M  V30 35 H  17.9790 40.6442 87.5113 0
M  V30 36 H  18.0120 39.1210 85.9779 0
M  V30 37 H  18.2953 38.3270 87.5069 0
M  V30 38 H  19.8124 37.4781 85.8122 0
M  V30 39 H  21.9732 39.5231 83.7363 0
M  V30 40 H  21.5004 37.8584 84.0439 0
M  V30 41 H  20.8090 37.4882 88.0433 0
M  V30 42 H  21.2505 39.1664 87.9119 0
M  V30 43 H  22.4902 36.7914 86.4772 0
M  V30 44 H  23.2712 37.9568 87.5271 0
M  V30 45 H  23.0462 39.7387 85.9188 0
M  V30 46 H  24.9523 38.8651 85.2002 0
M  V30 47 H  22.8828 34.4725 83.0740 0
M  V30 48 H  28.8631 36.8647 82.5631 0
M  V30 49 H  27.5236 34.9553 81.8237 0
M  V30 50 H  25.1220 42.0393 86.6954 0
M  V30 51 H  26.2792 38.3783 88.5839 0
M  V30 52 H  27.2902 37.5998 86.5082 0
M  V30 53 H  24.4225 40.6506 91.4507 0
M  V30 54 H  25.7183 41.6282 93.3196 0
M  V30 55 H  27.8480 42.8061 92.8440 0
M  V30 56 H  28.6886 42.9930 90.5411 0
M  V30 57 H  27.4181 42.0101 88.6831 0
M  V30 END ATOM
M  V30 BEGIN BOND
M  V30 1 1 1 2
M  V30 2 1 1 35
M  V30 3 1 2 3
M  V30 4 1 2 36
M  V30 5 1 2 37
M  V30 6 1 3 4
M  V30 7 1 3 6
M  V30 8 1 3 38
M  V30 9 1 4 5
M  V30 10 1 5 8
M  V30 11 1 5 39
M  V30 12 1 5 40
M  V30 13 1 6 7
M  V30 14 1 6 41
M  V30 15 1 6 42
M  V30 16 1 7 8
M  V30 17 1 7 43
M  V30 18 1 7 44
M  V30 19 1 8 9
M  V30 20 1 8 45
M  V30 21 1 9 10
M  V30 22 1 9 46
M  V30 23 2 10 11
M  V30 24 1 10 14
M  V30 25 1 11 12
M  V30 26 2 12 13
M  V30 27 1 12 47
M  V30 28 1 13 15
M  V30 29 2 14 15
M  V30 30 1 14 16
M  V30 31 1 15 18
M  V30 32 2 16 17
M  V30 33 1 16 19
M  V30 34 1 17 18
M  V30 35 1 17 48
M  V30 36 1 18 49
M  V30 37 2 19 20
M  V30 38 1 19 21
M  V30 39 2 21 22
M  V30 40 1 21 27
M  V30 41 1 22 23
M  V30 42 1 22 24
M  V30 43 2 24 25
M  V30 44 1 24 50
M  V30 45 1 25 26
M  V30 46 1 25 28
M  V30 47 2 26 27
M  V30 48 1 26 51
M  V30 49 1 27 52
M  V30 50 1 28 29
M  V30 51 2 29 30
M  V30 52 1 29 34
M  V30 53 1 30 31
M  V30 54 1 30 53
M  V30 55 2 31 32
M  V30 56 1 31 54
M  V30 57 1 32 33
M  V30 58 1 32 55
M  V30 59 2 33 34
M  V30 60 1 33 56
M  V30 61 1 34 57
M  V30 END BOND
M  V30 END CTAB
M  END
> <s_m_entry_id>
1849

> <s_m_entry_name>
result.559

> <s_m_Source_Path>
D:\OneDrive - zju.edu.cn\DOC\A-Finished\LCK_VS\Planet\LCK-8617

> <s_m_Source_File>
glide-dock_SP_top1262_2_pv.maegz

> <i_m_Source_File_Index>
1849

> <PLANET_affinity>
7.216

> <i_lp_mmshare_version>
54117

> <i_f3d_flags>
0

> <s_epik_input>
W09IXVtDSDJdW0NASF0xT1tDSDJdW0NAQEhdKFtDSDJdW0NIMl0xKVtOSF1jMm5bY0hdbmMoYzIzKVtuSF1bY0hdYzNDKD1PKWM0YyhDbClbY0hdYyhbY0hdW2NIXTQpT2M1W2NIXVtjSF1bY0hdW2NIXVtjSF01

> <s_epik_cmdline>
J2VwaWtfcHl0aG9uJywgJy1waCcsICc3LjAnLCAnLXRuJywgJzgnLCAnLW1hJywgJzUwMCcsICctaW1hZScsICc8aW5maWxlLm1hZT4nLCAnLW9tYWUnLCAnPG91dGZpbGUubWFlPic=

> <r_epik_Ionization_Penalty>
  0.0004

> <r_epik_Ionization_Penalty_Charging>
  0.0000

> <r_epik_Ionization_Penalty_Neutral>
  0.0004

> <r_epik_State_Penalty>
  0.0000

> <r_epik_Charging_Adjusted_Penalty>
0

> <i_epik_Tot_Q>
0

> <i_epik_Tot_abs_Q>
0

> <s_lp_Force_Field>
S-OPLS

> <r_lp_Energy>
53.1439

> <b_lp_Chiralities_Consistent>
1

> <s_lp_Variant>
O=C(C1=C(C=C(OC2=CC=CC=C2)C=C1)Cl)C3=CNC4=NC=NC(N[C@@H]5CC[C@@H](CO)OC5)=C34-1

> <s_i_glide_gridfile>
glide-grid_1

> <i_i_glide_lignum>
2359

> <i_i_glide_rotatable_bonds>
8

> <r_i_docking_score>
-7.07696201519528

> <r_i_glide_ligand_efficiency>
-0.208145941623391

> <r_i_glide_ligand_efficiency_sa>
-0.674312048078528

> <r_i_glide_ligand_efficiency_ln>
-1.56349941121745

> <r_i_glide_gscore>
-7.07696201519528

> <r_i_glide_lipo>
-2.40989496168832

> <r_i_glide_hbond>
-0.399951530388572

> <r_i_glide_metal>
0

> <r_i_glide_rewards>
-1.16778940090233

> <r_i_glide_evdw>
-39.1992797851562

> <r_i_glide_ecoul>
-10.4822864532471

> <r_i_glide_erotb>
0.432980835028809

> <r_i_glide_esite>
0

> <r_i_glide_emodel>
-64.0968843753814

> <r_i_glide_energy>
-49.6815662384033

> <r_i_glide_einternal>
10.976824760437

> <i_i_glide_confnum>
202

> <i_i_glide_posenum>
233

> <r_i_glide_eff_state_penalty>
0

> <r_lp_tautomer_probability>
1

> <s_m_subgroup_title>
glide-dock_SP_top1262_2_pv

> <s_m_subgroupid>
glide-dock_SP_top1262_2_pv

> <b_m_subgroup_collapsed>
0

$$$$
O=C1C=C(C2=CC=C(OC(C3=CC=C(O)C(OC)=C3)C(CO)O4)C4=C2)OC5=CC(O)=CC(O)=C15
                    3D
 Schrodinger Suite 2021-3.
  0  0  0     0  0            999 V3000
M  V30 BEGIN CTAB
M  V30 COUNTS 54 58 0 0 0
M  V30 BEGIN ATOM
M  V30 1 C  24.7124 38.0810 85.9218 0
M  V30 2 C  23.3608 37.9065 86.1838 0
M  V30 3 O  22.7762 38.5769 87.2188 0
M  V30 4 C  22.6053 37.0464 85.3975 0
M  V30 5 C  23.1872 36.3656 84.3311 0
M  V30 6 O  22.3765 35.5568 83.5798 0
M  V30 7 C  24.5537 36.5354 84.0439 0
M  V30 8 C  25.2979 37.3987 84.8617 0
M  V30 9 C  25.2373 35.8679 82.8940 0
M  V30 10 O  24.6354 35.1565 82.0945 0
M  V30 11 C  26.6595 36.1401 82.8081 0
M  V30 12 C  27.2767 36.9990 83.6434 0
M  V30 13 O  26.6427 37.6316 84.6653 0
M  V30 14 C  28.7313 37.2717 83.6662 0
M  V30 15 C  29.2008 38.5516 84.0018 0
M  V30 16 C  30.5679 38.8226 84.0675 0
M  V30 17 C  29.6642 36.2649 83.3682 0
M  V30 18 C  31.0306 36.5171 83.4765 0
M  V30 19 C  31.4809 37.8050 83.8082 0
M  V30 20 O  31.9098 35.4722 83.2449 0
M  V30 21 C  33.2260 35.7038 83.7822 0 CFG=1
M  V30 22 C  34.2282 34.5629 83.4733 0
M  V30 23 O  33.8145 33.3367 84.0435 0
M  V30 24 C  33.6984 37.1358 83.3502 0 CFG=2
M  V30 25 O  32.8232 38.0782 83.9899 0
M  V30 26 C  33.8048 37.4391 81.8417 0
M  V30 27 C  33.5229 36.4911 80.8519 0
M  V30 28 C  33.6835 36.8021 79.5081 0
M  V30 29 C  34.0650 38.0842 79.1170 0
M  V30 30 O  34.1749 38.3566 77.7741 0
M  V30 31 C  34.2961 39.0754 80.0844 0
M  V30 32 C  34.1836 38.7277 81.4434 0
M  V30 33 O  34.6213 40.3469 79.6450 0
M  V30 34 C  34.7457 41.4106 80.5826 0
M  V30 35 H  25.3181 38.7405 86.5230 0
M  V30 36 H  23.3884 39.1783 87.6450 0
M  V30 37 H  21.5547 36.9158 85.6103 0
M  V30 38 H  22.8627 35.1259 82.8663 0
M  V30 39 H  27.2352 35.6397 82.0440 0
M  V30 40 H  28.5014 39.3434 84.2294 0
M  V30 41 H  30.9177 39.8066 84.3448 0
M  V30 42 H  29.3391 35.2672 83.1088 0
M  V30 43 H  33.1253 35.7181 84.8707 0
M  V30 44 H  34.3733 34.4048 82.4078 0
M  V30 45 H  35.2106 34.8086 83.8788 0
M  V30 46 H  34.2012 33.2457 84.9300 0
M  V30 47 H  34.6963 37.3080 83.7559 0
M  V30 48 H  33.1647 35.5025 81.0893 0
M  V30 49 H  33.4876 36.0328 78.7770 0
M  V30 50 H  33.9368 37.6185 77.2046 0
M  V30 51 H  34.3722 39.4605 82.2131 0
M  V30 52 H  34.9411 42.3394 80.0461 0
M  V30 53 H  33.8290 41.5525 81.1568 0
M  V30 54 H  35.5770 41.2432 81.2684 0
M  V30 END ATOM
M  V30 BEGIN BOND
M  V30 1 2 1 2
M  V30 2 1 1 8
M  V30 3 1 1 35
M  V30 4 1 2 3
M  V30 5 1 2 4
M  V30 6 1 3 36
M  V30 7 2 4 5
M  V30 8 1 4 37
M  V30 9 1 5 6
M  V30 10 1 5 7
M  V30 11 1 6 38
M  V30 12 2 7 8
M  V30 13 1 7 9
M  V30 14 1 8 13
M  V30 15 2 9 10
M  V30 16 1 9 11
M  V30 17 2 11 12
M  V30 18 1 11 39
M  V30 19 1 12 13
M  V30 20 1 12 14
M  V30 21 2 14 15
M  V30 22 1 14 17
M  V30 23 1 15 16
M  V30 24 1 15 40
M  V30 25 2 16 19
M  V30 26 1 16 41
M  V30 27 2 17 18
M  V30 28 1 17 42
M  V30 29 1 18 19
M  V30 30 1 18 20
M  V30 31 1 19 25
M  V30 32 1 20 21
M  V30 33 1 21 22
M  V30 34 1 21 24
M  V30 35 1 21 43
M  V30 36 1 22 23
M  V30 37 1 22 44
M  V30 38 1 22 45
M  V30 39 1 23 46
M  V30 40 1 24 25
M  V30 41 1 24 26
M  V30 42 1 24 47
M  V30 43 2 26 27
M  V30 44 1 26 32
M  V30 45 1 27 28
M  V30 46 1 27 48
M  V30 47 2 28 29
M  V30 48 1 28 49
M  V30 49 1 29 30
M  V30 50 1 29 31
M  V30 51 1 30 50
M  V30 52 2 31 32
M  V30 53 1 31 33
M  V30 54 1 32 51
M  V30 55 1 33 34
M  V30 56 1 34 52
M  V30 57 1 34 53
M  V30 58 1 34 54
M  V30 END BOND
M  V30 END CTAB
M  END
> <s_m_entry_id>
1852

> <s_m_entry_name>
result.2928

> <s_m_Source_Path>
D:\OneDrive - zju.edu.cn\DOC\A-Finished\LCK_VS\Planet\LCK-8617

> <s_m_Source_File>
glide-dock_SP_top1262_2_pv.maegz

> <i_m_Source_File_Index>
1852

> <PLANET_affinity>
7.608

> <i_lp_mmshare_version>
54117

> <i_f3d_flags>
0

> <s_epik_input>
W09IXWMxW2NIXWMoW09IXSlbY0hdYyhjMTIpb2MoW2NIXWMyPU8pLWMoW2NIXTMpW2NIXVtjSF1jKGMzNClPW0NAQEhdKFtDQEBIXShPNClbQ0gyXVtPSF0pYzVbY0hdW2NIXWMoW09IXSljKFtjSF01KU9bQ0gzXQ==

> <s_epik_cmdline>
J2VwaWtfcHl0aG9uJywgJy1waCcsICc3LjAnLCAnLXRuJywgJzgnLCAnLW1hJywgJzUwMCcsICctaW1hZScsICc8aW5maWxlLm1hZT4nLCAnLW9tYWUnLCAnPG91dGZpbGUubWFlPic=

> <r_epik_Ionization_Penalty>
  0.0449

> <r_epik_Ionization_Penalty_Charging>
  0.0000

> <r_epik_Ionization_Penalty_Neutral>
  0.0449

> <r_epik_State_Penalty>
  0.0360

> <r_epik_Charging_Adjusted_Penalty>
0.0359905

> <i_epik_Tot_Q>
0

> <i_epik_Tot_abs_Q>
0

> <s_lp_Force_Field>
S-OPLS

> <r_lp_Energy>
25.5588

> <b_lp_Chiralities_Consistent>
1

> <s_lp_Variant>
O=C1C=C(C2=CC=C(OC(C3=CC=C(O)C(OC)=C3)C(CO)O4)C4=C2)OC5=CC(O)=CC(O)=C15-1

> <s_i_glide_gridfile>
glide-grid_1

> <i_i_glide_lignum>
1794

> <i_i_glide_rotatable_bonds>
8

> <r_i_docking_score>
-7.07525498517138

> <r_i_glide_ligand_efficiency>
-0.208095734857982

> <r_i_glide_ligand_efficiency_sa>
-0.674149397648997

> <r_i_glide_ligand_efficiency_ln>
-1.5631222804046

> <r_i_glide_gscore>
-7.11125498517138

> <r_i_glide_lipo>
-3.04266945850784

> <r_i_glide_hbond>
-0.264668103816509

> <r_i_glide_metal>
0

> <r_i_glide_rewards>
-0.785618299240422

> <r_i_glide_evdw>
-40.7925605773926

> <r_i_glide_ecoul>
-8.39378356933594

> <r_i_glide_erotb>
0.280396440663416

> <r_i_glide_esite>
0

> <r_i_glide_emodel>
-68.8085169856673

> <r_i_glide_energy>
-49.1863441467285

> <r_i_glide_einternal>
3.92454528808594

> <i_i_glide_confnum>
34

> <i_i_glide_posenum>
241

> <r_i_glide_eff_state_penalty>
0.036

> <r_lp_tautomer_probability>
1

> <s_m_subgroup_title>
glide-dock_SP_top1262_2_pv

> <s_m_subgroupid>
glide-dock_SP_top1262_2_pv

> <b_m_subgroup_collapsed>
0

$$$$
CC1=CC(CN(CC2)CCN2C3=C4C(NC(C5=CC=C(N6CCN(C)CC6)C=C5)=N4)=NC=C3Br)=NO1
                    3D
 Schrodinger Suite 2021-3.
  0  0  0     0  0            999 V3000
M  V30 BEGIN CTAB
M  V30 COUNTS 68 73 0 0 0
M  V30 BEGIN ATOM
M  V30 1 C  19.9987 43.2043 89.2938 0
M  V30 2 C  21.3443 42.5604 89.0865 0
M  V30 3 C  22.3768 42.7535 88.2035 0
M  V30 4 C  23.3593 41.8319 88.5642 0
M  V30 5 N  22.9627 41.0992 89.5868 0
M  V30 6 O  21.6829 41.5462 89.9209 0
M  V30 7 C  24.7414 41.6339 87.9555 0
M  V30 8 N  24.8724 40.5370 86.9846 0
M  V30 9 C  23.9117 40.5983 85.8812 0
M  V30 10 C  24.2275 39.5173 84.8166 0
M  V30 11 N  24.3449 38.1510 85.3579 0
M  V30 12 C  25.2391 38.1566 86.5273 0
M  V30 13 C  24.8350 39.2048 87.5897 0
M  V30 14 C  24.4131 37.1026 84.4488 0
M  V30 15 C  23.2725 36.3621 84.0803 0
M  V30 16 Br 21.5662 36.6968 84.8684 0
M  V30 17 C  23.3781 35.3760 83.0959 0
M  V30 18 N  24.5261 35.0512 82.4443 0
M  V30 19 C  25.6000 35.7257 82.8504 0
M  V30 20 C  25.6310 36.7418 83.8290 0
M  V30 21 N  26.9017 35.5920 82.4441 0
M  V30 22 C  27.6580 36.4617 83.1984 0
M  V30 23 N  26.9161 37.1981 83.9954 0
M  V30 24 C  29.1547 36.5215 83.1490 0
M  V30 25 C  29.8836 35.5592 82.4447 0
M  V30 26 C  31.2740 35.6084 82.4289 0
M  V30 27 C  31.9748 36.6170 83.1025 0
M  V30 28 C  31.2390 37.5736 83.8122 0
M  V30 29 C  29.8471 37.5245 83.8355 0
M  V30 30 N  33.3661 36.6964 83.0447 0
M  V30 31 C  34.1961 36.0343 82.0202 0
M  V30 32 C  34.9321 34.7883 82.5554 0
M  V30 33 N  35.8644 35.2490 83.6931 0 CHG=1
M  V30 34 C  36.7066 34.0700 84.2249 0
M  V30 35 C  34.9971 35.8921 84.7996 0
M  V30 36 C  34.2073 37.0806 84.1968 0
M  V30 37 H  19.9528 44.1964 88.8444 0
M  V30 38 H  19.1964 42.6218 88.8420 0
M  V30 39 H  19.7664 43.3318 90.3500 0
M  V30 40 H  22.4122 43.4854 87.4077 0
M  V30 41 H  25.0599 42.5523 87.4622 0
M  V30 42 H  25.4734 41.4765 88.7494 0
M  V30 43 H  22.8929 40.4646 86.2454 0
M  V30 44 H  23.9503 41.5853 85.4198 0
M  V30 45 H  25.1749 39.7876 84.3440 0
M  V30 46 H  23.4434 39.5426 84.0570 0
M  V30 47 H  26.2500 38.4075 86.2037 0
M  V30 48 H  25.2884 37.1590 86.9572 0
M  V30 49 H  25.5261 39.1547 88.4332 0
M  V30 50 H  23.8386 38.9809 87.9742 0
M  V30 51 H  22.4993 34.8114 82.8111 0
M  V30 52 H  27.2845 34.9795 81.7374 0
M  V30 53 H  29.3897 34.7595 81.9082 0
M  V30 54 H  31.7925 34.8399 81.8794 0
M  V30 55 H  31.7338 38.3822 84.3297 0
M  V30 56 H  29.3065 38.2762 84.3912 0
M  V30 57 H  33.5921 35.7442 81.1589 0
M  V30 58 H  34.8997 36.7658 81.6175 0
M  V30 59 H  35.5589 34.3261 81.7900 0
M  V30 60 H  34.2481 34.0408 82.9660 0
M  V30 61 H  36.0542 33.2240 84.4439 0
M  V30 62 H  37.4154 33.8021 83.4369 0
M  V30 63 H  37.2264 34.4060 85.1280 0
M  V30 64 H  35.6770 36.2155 85.5885 0
M  V30 65 H  34.3387 35.1282 85.2108 0
M  V30 66 H  34.8757 37.8925 83.9022 0
M  V30 67 H  33.5904 37.4835 84.9993 0
M  V30 68 H  36.4821 35.9633 83.3359 0
M  V30 END ATOM
M  V30 BEGIN BOND
M  V30 1 1 1 2
M  V30 2 1 1 37
M  V30 3 1 1 38
M  V30 4 1 1 39
M  V30 5 2 2 3
M  V30 6 1 2 6
M  V30 7 1 3 4
M  V30 8 1 3 40
M  V30 9 2 4 5
M  V30 10 1 4 7
M  V30 11 1 5 6
M  V30 12 1 7 8
M  V30 13 1 7 41
M  V30 14 1 7 42
M  V30 15 1 8 9
M  V30 16 1 8 13
M  V30 17 1 9 10
M  V30 18 1 9 43
M  V30 19 1 9 44
M  V30 20 1 10 11
M  V30 21 1 10 45
M  V30 22 1 10 46
M  V30 23 1 11 12
M  V30 24 1 11 14
M  V30 25 1 12 13
M  V30 26 1 12 47
M  V30 27 1 12 48
M  V30 28 1 13 49
M  V30 29 1 13 50
M  V30 30 2 14 15
M  V30 31 1 14 20
M  V30 32 1 15 16
M  V30 33 1 15 17
M  V30 34 1 17 51
M  V30 35 2 17 18
M  V30 36 1 18 19
M  V30 37 1 19 21
M  V30 38 2 19 20
M  V30 39 1 20 23
M  V30 40 1 21 52
M  V30 41 1 21 22
M  V30 42 1 22 24
M  V30 43 2 22 23
M  V30 44 2 24 25
M  V30 45 1 24 29
M  V30 46 1 25 26
M  V30 47 1 25 53
M  V30 48 2 26 27
M  V30 49 1 26 54
M  V30 50 1 27 28
M  V30 51 1 27 30
M  V30 52 2 28 29
M  V30 53 1 28 55
M  V30 54 1 29 56
M  V30 55 1 30 31
M  V30 56 1 30 36
M  V30 57 1 31 32
M  V30 58 1 31 57
M  V30 59 1 31 58
M  V30 60 1 32 33
M  V30 61 1 32 59
M  V30 62 1 32 60
M  V30 63 1 33 34
M  V30 64 1 33 35
M  V30 65 1 33 68
M  V30 66 1 34 61
M  V30 67 1 34 62
M  V30 68 1 34 63
M  V30 69 1 35 36
M  V30 70 1 35 64
M  V30 71 1 35 65
M  V30 72 1 36 66
M  V30 73 1 36 67
M  V30 END BOND
M  V30 END CTAB
M  END
> <s_m_entry_id>
1858

> <s_m_entry_name>
result.59

> <s_m_Source_Path>
D:\OneDrive - zju.edu.cn\DOC\A-Finished\LCK_VS\Planet\LCK-8617

> <s_m_Source_File>
glide-dock_SP_top1262_2_pv.maegz

> <i_m_Source_File_Index>
1858

> <PLANET_affinity>
7.458

> <i_lp_mmshare_version>
54117

> <i_f3d_flags>
0

> <s_epik_input>
W0NIM11jMVtjSF1jKG5vMSlbQ0gyXU4yW0NIMl1bQ0gyXU4oW0NIMl1bQ0gyXTIpYyhjKEJyKVtjSF1uMyljKGMzNClbbkhdYyhuNCktYzVbY0hdW2NIXWMoW2NIXVtjSF01KU42W0NIMl1bQ0gyXU4oW0NIM10pW0NIMl1bQ0gyXTY=

> <s_epik_cmdline>
J2VwaWtfcHl0aG9uJywgJy1waCcsICc3LjAnLCAnLXRuJywgJzgnLCAnLW1hJywgJzUwMCcsICctaW1hZScsICc8aW5maWxlLm1hZT4nLCAnLW9tYWUnLCAnPG91dGZpbGUubWFlPic=

> <r_epik_Ionization_Penalty>
  0.1502

> <r_epik_Ionization_Penalty_Charging>
  0.0649

> <r_epik_Ionization_Penalty_Neutral>
  0.0853

> <r_epik_State_Penalty>
  0.7387

> <r_epik_Charging_Adjusted_Penalty>
0.803595

> <i_epik_Tot_Q>
1

> <i_epik_Tot_abs_Q>
1

> <s_lp_Force_Field>
S-OPLS

> <r_lp_Energy>
76.4131

> <b_lp_Chiralities_Consistent>
1

> <s_lp_Variant>
CC1=CC(CN(CC2)CCN2C3=C4C(NC(C5=CC=C(N6CCN(C)CC6)C=C5)=N4)=NC=C3Br)=NO1-2

> <s_i_glide_gridfile>
glide-grid_1

> <i_i_glide_lignum>
1987

> <i_i_glide_rotatable_bonds>
5

> <r_i_docking_score>
-7.07243505892854

> <r_i_glide_ligand_efficiency>
-0.196456529414682

> <r_i_glide_ligand_efficiency_sa>
-0.648685166922747

> <r_i_glide_ligand_efficiency_ln>
-1.54301425474437

> <r_i_glide_gscore>
-7.81113505892854

> <r_i_glide_lipo>
-2.10331979034686

> <r_i_glide_hbond>
-0.455304945140102

> <r_i_glide_metal>
0

> <r_i_glide_rewards>
-1.75164684422347

> <r_i_glide_evdw>
-39.4296493530273

> <r_i_glide_ecoul>
-10.8573579788208

> <r_i_glide_erotb>
0.187926296687322

> <r_i_glide_esite>
-0.0887036114309382

> <r_i_glide_emodel>
-74.8115336399412

> <r_i_glide_energy>
-50.2870073318481

> <r_i_glide_einternal>
4.89426279067993

> <i_i_glide_confnum>
174

> <i_i_glide_posenum>
232

> <r_i_glide_eff_state_penalty>
0.7387

> <r_lp_tautomer_probability>
0.357409

> <s_m_subgroup_title>
glide-dock_SP_top1262_2_pv

> <s_m_subgroupid>
glide-dock_SP_top1262_2_pv

> <b_m_subgroup_collapsed>
0

$$$$
O=C(N1C)N(C)C2=C(N(CC3=CC=C(C(C)(C)C)C=C3)C=N2)C1=O
                    3D
 Schrodinger Suite 2021-3.
  0  0  0     0  0            999 V3000
M  V30 BEGIN CTAB
M  V30 COUNTS 46 48 0 0 0
M  V30 BEGIN ATOM
M  V30 1 C  23.2319 35.5357 83.3615 0
M  V30 2 N  24.4942 36.1921 83.7472 0
M  V30 3 C  25.6644 35.7437 83.1844 0
M  V30 4 O  25.6822 34.7563 82.4434 0
M  V30 5 N  26.7923 36.4941 83.4878 0
M  V30 6 C  28.0406 36.0062 82.8489 0
M  V30 7 C  26.9191 37.6331 84.2646 0
M  V30 8 O  27.9750 38.2466 84.4274 0
M  V30 9 C  25.6410 37.9744 84.8575 0
M  V30 10 C  24.4679 37.2773 84.6132 0
M  V30 11 N  25.2779 38.9978 85.7115 0
M  V30 12 C  23.9222 38.8279 85.8835 0
M  V30 13 N  23.4290 37.7934 85.2497 0
M  V30 14 C  26.0944 40.0875 86.2487 0
M  V30 15 C  25.8113 40.4316 87.7065 0
M  V30 16 C  26.3499 39.6470 88.7239 0
M  V30 17 C  26.0826 39.9564 90.0540 0
M  V30 18 C  25.2754 41.0515 90.3985 0
M  V30 19 C  24.9721 41.4186 91.8769 0
M  V30 20 C  25.8184 40.6160 92.9000 0
M  V30 21 C  23.4812 41.1462 92.1736 0
M  V30 22 C  25.2744 42.9183 92.1343 0
M  V30 23 C  24.7380 41.8290 89.3599 0
M  V30 24 C  25.0028 41.5230 88.0266 0
M  V30 25 H  23.2633 34.4722 83.5999 0
M  V30 26 H  22.3638 35.9592 83.8675 0
M  V30 27 H  23.0640 35.6218 82.2855 0
M  V30 28 H  28.9237 36.6234 83.0364 0
M  V30 29 H  28.2829 35.0017 83.2042 0
M  V30 30 H  27.9289 35.9574 81.7661 0
M  V30 31 H  23.3685 39.5178 86.5050 0
M  V30 32 H  25.9540 40.9615 85.6077 0
M  V30 33 H  27.1474 39.8261 86.1614 0
M  V30 34 H  26.9708 38.7915 88.4906 0
M  V30 35 H  26.4855 39.3079 90.8116 0
M  V30 36 H  25.6036 40.9139 93.9288 0
M  V30 37 H  26.8841 40.7691 92.7425 0
M  V30 38 H  25.6243 39.5459 92.8527 0
M  V30 39 H  22.8249 41.7389 91.5344 0
M  V30 40 H  23.2298 40.0973 92.0154 0
M  V30 41 H  23.2270 41.3868 93.2060 0
M  V30 42 H  24.6389 43.5791 91.5436 0
M  V30 43 H  25.1134 43.1875 93.1800 0
M  V30 44 H  26.3118 43.1607 91.8931 0
M  V30 45 H  24.1023 42.6743 89.5744 0
M  V30 46 H  24.5726 42.1350 87.2452 0
M  V30 END ATOM
M  V30 BEGIN BOND
M  V30 1 1 1 2
M  V30 2 1 1 25
M  V30 3 1 1 26
M  V30 4 1 1 27
M  V30 5 1 2 3
M  V30 6 1 2 10
M  V30 7 2 3 4
M  V30 8 1 3 5
M  V30 9 1 5 6
M  V30 10 1 5 7
M  V30 11 1 6 28
M  V30 12 1 6 29
M  V30 13 1 6 30
M  V30 14 2 7 8
M  V30 15 1 7 9
M  V30 16 2 9 10
M  V30 17 1 9 11
M  V30 18 1 10 13
M  V30 19 1 11 12
M  V30 20 1 11 14
M  V30 21 2 12 13
M  V30 22 1 12 31
M  V30 23 1 14 15
M  V30 24 1 14 32
M  V30 25 1 14 33
M  V30 26 2 15 16
M  V30 27 1 15 24
M  V30 28 1 16 17
M  V30 29 1 16 34
M  V30 30 2 17 18
M  V30 31 1 17 35
M  V30 32 1 18 19
M  V30 33 1 18 23
M  V30 34 1 19 20
M  V30 35 1 19 21
M  V30 36 1 19 22
M  V30 37 1 20 36
M  V30 38 1 20 37
M  V30 39 1 20 38
M  V30 40 1 21 39
M  V30 41 1 21 40
M  V30 42 1 21 41
M  V30 43 1 22 42
M  V30 44 1 22 43
M  V30 45 1 22 44
M  V30 46 2 23 24
M  V30 47 1 23 45
M  V30 48 1 24 46
M  V30 END BOND
M  V30 END CTAB
M  END
> <s_m_entry_id>
1862

> <s_m_entry_name>
result.6462

> <s_m_Source_Path>
D:\OneDrive - zju.edu.cn\DOC\A-Finished\LCK_VS\Planet\LCK-8617

> <s_m_Source_File>
glide-dock_SP_top1262_2_pv.maegz

> <i_m_Source_File_Index>
1862

> <PLANET_affinity>
7.032

> <i_lp_mmshare_version>
54117

> <i_f3d_flags>
0

> <s_epik_input>
Tz1jMW4oW0NIM10pYyg9TyluKFtDSDNdKWMoYzEyKW5bY0hdbjJbQ0gyXWMzW2NIXVtjSF1jKEMoW0NIM10pKFtDSDNdKVtDSDNdKVtjSF1bY0hdMw==

> <s_epik_cmdline>
J2VwaWtfcHl0aG9uJywgJy1waCcsICc3LjAnLCAnLXRuJywgJzgnLCAnLW1hJywgJzUwMCcsICctaW1hZScsICc8aW5maWxlLm1hZT4nLCAnLW9tYWUnLCAnPG91dGZpbGUubWFlPic=

> <r_epik_Ionization_Penalty>
  0.0000

> <r_epik_Ionization_Penalty_Charging>
  0.0000

> <r_epik_Ionization_Penalty_Neutral>
  0.0000

> <r_epik_State_Penalty>
  0.0000

> <r_epik_Charging_Adjusted_Penalty>
3.75705e-09

> <i_epik_Tot_Q>
0

> <i_epik_Tot_abs_Q>
0

> <s_lp_Force_Field>
S-OPLS

> <r_lp_Energy>
23.0351

> <b_lp_Chiralities_Consistent>
1

> <s_lp_Variant>
O=C(N1C)N(C)C2=C(N(CC3=CC=C(C(C)(C)C)C=C3)C=N2)C1=O-1

> <s_i_glide_gridfile>
glide-grid_1

> <i_i_glide_lignum>
2649

> <i_i_glide_rotatable_bonds>
3

> <r_i_docking_score>
-7.07172226069229

> <r_i_glide_ligand_efficiency>
-0.294655094195512

> <r_i_glide_ligand_efficiency_sa>
-0.849932365084356

> <r_i_glide_ligand_efficiency_ln>
-1.69258763717349

> <r_i_glide_gscore>
-7.07172226069229

> <r_i_glide_lipo>
-1.63358275129673

> <r_i_glide_hbond>
-0.32

> <r_i_glide_metal>
0

> <r_i_glide_rewards>
-3.3064105209869

> <r_i_glide_evdw>
-32.1105728149414

> <r_i_glide_ecoul>
-3.72189116477966

> <r_i_glide_erotb>
0.352083327055362

> <r_i_glide_esite>
0

> <r_i_glide_emodel>
-49.9608851517632

> <r_i_glide_energy>
-35.8324639797211

> <r_i_glide_einternal>
2.51393842697144

> <i_i_glide_confnum>
4

> <i_i_glide_posenum>
384

> <r_i_glide_eff_state_penalty>
0

> <r_lp_tautomer_probability>
1

> <s_m_subgroup_title>
glide-dock_SP_top1262_2_pv

> <s_m_subgroupid>
glide-dock_SP_top1262_2_pv

> <b_m_subgroup_collapsed>
0

$$$$
O=C(N1CCCC2=C1N=C(C=O)C(CN3C(COCC3)=O)=C2)NC4=NC=C(C#N)C(NCCOC)=C4
                    3D
 Schrodinger Suite 2021-3.
  0  0  0     0  0            999 V3000
M  V30 BEGIN CTAB
M  V30 COUNTS 63 66 0 0 0
M  V30 BEGIN ATOM
M  V30 1 C  22.6290 40.7659 89.3296 0
M  V30 2 O  21.2832 41.1251 89.0395 0
M  V30 3 C  21.0754 41.7051 87.7504 0
M  V30 4 C  21.3093 40.7169 86.5895 0
M  V30 5 N  20.4036 39.5696 86.6189 0
M  V30 6 C  20.5914 38.5168 85.6988 0
M  V30 7 C  21.8753 38.0095 85.4383 0
M  V30 8 C  19.4968 37.9213 85.0392 0
M  V30 9 C  18.1219 38.3879 85.1604 0
M  V30 10 N  17.0313 38.7571 85.2445 0
M  V30 11 C  19.7415 36.8531 84.1787 0
M  V30 12 N  20.9788 36.3629 83.9336 0
M  V30 13 C  22.0370 36.9392 84.5401 0
M  V30 14 N  23.2777 36.3985 84.1584 0
M  V30 15 C  24.4325 36.4824 84.8495 0
M  V30 16 O  24.4513 36.7420 86.0435 0
M  V30 17 N  25.5783 36.3143 84.1344 0
M  V30 18 C  25.7377 34.9603 83.5648 0
M  V30 19 C  26.6877 35.0954 82.3711 0
M  V30 20 C  28.0688 35.6621 82.7426 0
M  V30 21 C  26.7321 37.1571 84.3183 0
M  V30 22 C  27.9394 36.8838 83.6434 0
M  V30 23 N  26.6137 38.2582 85.1172 0
M  V30 24 C  27.6757 39.0648 85.3543 0
M  V30 25 C  27.4283 40.1770 86.3231 0
M  V30 26 O  26.3378 40.4523 86.8281 0
M  V30 27 C  28.9246 38.8335 84.7463 0
M  V30 28 C  29.0246 37.7385 83.8743 0
M  V30 29 C  30.1316 39.7546 85.0007 0
M  V30 30 N  31.1852 39.8203 83.9730 0
M  V30 31 C  30.8939 40.3561 82.7472 0
M  V30 32 O  29.7756 40.7753 82.4449 0
M  V30 33 C  32.0618 40.3955 81.7254 0
M  V30 34 O  33.1580 39.5414 82.0575 0
M  V30 35 C  33.6120 39.7051 83.3862 0
M  V30 36 C  32.4875 39.2005 84.2990 0
M  V30 37 H  22.6940 40.4168 90.3586 0
M  V30 38 H  23.3033 41.6168 89.2252 0
M  V30 39 H  22.9809 39.9571 88.6888 0
M  V30 40 H  20.0524 42.0792 87.7058 0
M  V30 41 H  21.7164 42.5802 87.6369 0
M  V30 42 H  21.1751 41.2270 85.6347 0
M  V30 43 H  22.3513 40.4070 86.5768 0
M  V30 44 H  19.4346 39.8182 86.7652 0
M  V30 45 H  22.7347 38.4484 85.9206 0
M  V30 46 H  18.9350 36.3686 83.6440 0
M  V30 47 H  23.3054 36.0005 83.2329 0
M  V30 48 H  26.1947 34.3193 84.3195 0
M  V30 49 H  24.7983 34.5051 83.2442 0
M  V30 50 H  26.8197 34.1247 81.8913 0
M  V30 51 H  26.2113 35.7477 81.6426 0
M  V30 52 H  28.6563 34.8928 83.2438 0
M  V30 53 H  28.6228 35.9200 81.8388 0
M  V30 54 H  28.3030 40.7675 86.5870 0
M  V30 55 H  29.9625 37.5308 83.3787 0
M  V30 56 H  29.7773 40.7786 85.1255 0
M  V30 57 H  30.5687 39.4777 85.9604 0
M  V30 58 H  31.6723 40.1421 80.7388 0
M  V30 59 H  32.4059 41.4290 81.6794 0
M  V30 60 H  34.5305 39.1429 83.5551 0
M  V30 61 H  33.8477 40.7511 83.5961 0
M  V30 62 H  32.7169 39.1275 85.3625 0
M  V30 63 H  32.3275 38.1723 83.9717 0
M  V30 END ATOM
M  V30 BEGIN BOND
M  V30 1 1 1 2
M  V30 2 1 1 37
M  V30 3 1 1 38
M  V30 4 1 1 39
M  V30 5 1 2 3
M  V30 6 1 3 4
M  V30 7 1 3 40
M  V30 8 1 3 41
M  V30 9 1 4 5
M  V30 10 1 4 42
M  V30 11 1 4 43
M  V30 12 1 5 6
M  V30 13 1 5 44
M  V30 14 2 6 7
M  V30 15 1 6 8
M  V30 16 1 7 13
M  V30 17 1 7 45
M  V30 18 1 8 9
M  V30 19 2 8 11
M  V30 20 3 9 10
M  V30 21 1 11 12
M  V30 22 1 11 46
M  V30 23 2 12 13
M  V30 24 1 13 14
M  V30 25 1 14 15
M  V30 26 1 14 47
M  V30 27 2 15 16
M  V30 28 1 15 17
M  V30 29 1 17 18
M  V30 30 1 17 21
M  V30 31 1 18 19
M  V30 32 1 18 48
M  V30 33 1 18 49
M  V30 34 1 19 20
M  V30 35 1 19 50
M  V30 36 1 19 51
M  V30 37 1 20 22
M  V30 38 1 20 52
M  V30 39 1 20 53
M  V30 40 2 21 22
M  V30 41 1 21 23
M  V30 42 1 22 28
M  V30 43 2 23 24
M  V30 44 1 24 25
M  V30 45 1 24 27
M  V30 46 2 25 26
M  V30 47 1 25 54
M  V30 48 2 27 28
M  V30 49 1 27 29
M  V30 50 1 28 55
M  V30 51 1 29 30
M  V30 52 1 29 56
M  V30 53 1 29 57
M  V30 54 1 30 31
M  V30 55 1 30 36
M  V30 56 2 31 32
M  V30 57 1 31 33
M  V30 58 1 33 34
M  V30 59 1 33 58
M  V30 60 1 33 59
M  V30 61 1 34 35
M  V30 62 1 35 36
M  V30 63 1 35 60
M  V30 64 1 35 61
M  V30 65 1 36 62
M  V30 66 1 36 63
M  V30 END BOND
M  V30 END CTAB
M  END
> <s_m_entry_id>
1865

> <s_m_entry_name>
result.4625

> <s_m_Source_Path>
D:\OneDrive - zju.edu.cn\DOC\A-Finished\LCK_VS\Planet\LCK-8617

> <s_m_Source_File>
glide-dock_SP_top1262_2_pv.maegz

> <i_m_Source_File_Index>
1865

> <PLANET_affinity>
9.338

> <i_lp_mmshare_version>
54117

> <i_f3d_flags>
0

> <s_epik_input>
W0NIM11PW0NIMl1bQ0gyXVtOSF1jMVtjSF1jKG5bY0hdYzFDI04pW05IXUMoPU8pTjJbQ0gyXVtDSDJdW0NIMl1jKGMyMylbY0hdYyhjKG4zKVtDSF09TylbQ0gyXU40Qyg9TylbQ0gyXU9bQ0gyXVtDSDJdNA==

> <s_epik_cmdline>
J2VwaWtfcHl0aG9uJywgJy1waCcsICc3LjAnLCAnLXRuJywgJzgnLCAnLW1hJywgJzUwMCcsICctaW1hZScsICc8aW5maWxlLm1hZT4nLCAnLW9tYWUnLCAnPG91dGZpbGUubWFlPic=

> <r_epik_Ionization_Penalty>
  0.0002

> <r_epik_Ionization_Penalty_Charging>
  0.0000

> <r_epik_Ionization_Penalty_Neutral>
  0.0002

> <r_epik_State_Penalty>
  0.0000

> <r_epik_Charging_Adjusted_Penalty>
0

> <i_epik_Tot_Q>
0

> <i_epik_Tot_abs_Q>
0

> <s_lp_Force_Field>
S-OPLS

> <r_lp_Energy>
79.0707

> <b_lp_Chiralities_Consistent>
1

> <s_lp_Variant>
O=C(N1CCCC2=C1N=C(C=O)C(CN3C(COCC3)=O)=C2)NC4=NC=C(C#N)C(NCCOC)=C4-1

> <s_i_glide_gridfile>
glide-grid_1

> <i_i_glide_lignum>
403

> <i_i_glide_rotatable_bonds>
10

> <r_i_docking_score>
-7.07112731051597

> <r_i_glide_ligand_efficiency>
-0.196420203069888

> <r_i_glide_ligand_efficiency_sa>
-0.648565219975164

> <r_i_glide_ligand_efficiency_ln>
-1.54272893937202

> <r_i_glide_gscore>
-7.07112731051597

> <r_i_glide_lipo>
-2.25585705271867

> <r_i_glide_hbond>
-0.76

> <r_i_glide_metal>
0

> <r_i_glide_rewards>
-1.12207978936983

> <r_i_glide_evdw>
-43.4670143127441

> <r_i_glide_ecoul>
-9.18253135681152

> <r_i_glide_erotb>
0.669150621628285

> <r_i_glide_esite>
-0.0516106708968122

> <r_i_glide_emodel>
-67.8064303651587

> <r_i_glide_energy>
-52.6495456695557

> <r_i_glide_einternal>
13.3989725112915

> <i_i_glide_confnum>
285

> <i_i_glide_posenum>
361

> <r_i_glide_eff_state_penalty>
0

> <r_lp_tautomer_probability>
1

> <s_m_subgroup_title>
glide-dock_SP_top1262_2_pv

> <s_m_subgroupid>
glide-dock_SP_top1262_2_pv

> <b_m_subgroup_collapsed>
0

$$$$
O=C(NC12CCN(C[C@@H](NC3=NC4=CC=C(F)C=C4S3)CC5=CC=CC=C5)CC2)NC6=C1C=CC=C6
                    3D
 Schrodinger Suite 2021-3.
  0  0  0     0  0            999 V3000
M  V30 BEGIN CTAB
M  V30 COUNTS 65 70 0 0 0
M  V30 BEGIN ATOM
M  V30 1 C  29.1537 38.5635 84.8436 0
M  V30 2 C  30.5045 38.3964 84.5392 0
M  V30 3 C  30.9028 37.3970 83.6555 0
M  V30 4 C  29.9460 36.5639 83.0838 0
M  V30 5 C  28.5983 36.7377 83.4006 0
M  V30 6 N  27.6594 35.9021 82.8157 0
M  V30 7 C  26.3426 35.8308 83.0609 0
M  V30 8 O  25.5883 35.0819 82.4471 0
M  V30 9 N  25.9243 36.6896 84.0197 0
M  V30 10 C  28.1651 37.7369 84.2869 0
M  V30 11 C  26.6402 37.8829 84.5661 0 CFG=2
M  V30 12 C  26.2922 37.9443 86.0893 0
M  V30 13 C  26.3894 39.3111 86.8009 0
M  V30 14 N  25.6486 40.3817 85.9710 0 CHG=1 CFG=2
M  V30 15 C  26.2693 40.4816 84.5565 0
M  V30 16 C  26.0820 39.1330 83.8376 0
M  V30 17 C  25.6800 41.7490 86.7014 0
M  V30 18 C  24.6123 42.7466 86.1572 0 CFG=2
M  V30 19 C  24.9502 44.2035 86.5711 0
M  V30 20 C  26.3419 44.6771 86.1539 0
M  V30 21 C  26.6867 44.7325 84.8018 0
M  V30 22 C  27.9631 45.1378 84.4225 0
M  V30 23 C  28.8955 45.4841 85.3953 0
M  V30 24 C  28.5601 45.4378 86.7465 0
M  V30 25 C  27.2810 45.0368 87.1261 0
M  V30 26 N  23.2569 42.4283 86.6097 0
M  V30 27 C  22.3393 41.5026 86.1835 0
M  V30 28 N  21.2228 41.3255 86.8258 0
M  V30 29 S  22.5742 40.5089 84.7582 0
M  V30 30 C  21.0420 39.7255 85.1186 0
M  V30 31 C  20.4663 40.3537 86.2551 0
M  V30 32 C  20.3913 38.6656 84.4682 0
M  V30 33 C  19.1430 38.2686 84.9485 0
M  V30 34 F  18.4885 37.2569 84.3319 0
M  V30 35 C  18.5587 38.9021 86.0478 0
M  V30 36 C  19.2081 39.9450 86.7166 0
M  V30 37 H  28.8967 39.3614 85.5171 0
M  V30 38 H  31.2440 39.0494 84.9815 0
M  V30 39 H  31.9485 37.2683 83.4159 0
M  V30 40 H  30.2555 35.7876 82.3959 0
M  V30 41 H  27.9704 35.2462 82.1138 0
M  V30 42 H  24.9514 36.5908 84.2672 0
M  V30 43 H  26.9330 37.2472 86.6270 0
M  V30 44 H  25.2769 37.5760 86.2563 0
M  V30 45 H  27.4119 39.6564 86.9516 0
M  V30 46 H  25.9035 39.2684 87.7774 0
M  V30 47 H  25.7622 41.2804 84.0151 0
M  V30 48 H  27.3184 40.7573 84.6732 0
M  V30 49 H  25.0163 38.9917 83.6547 0
M  V30 50 H  26.5277 39.2031 82.8440 0
M  V30 51 H  26.7066 42.1023 86.5910 0
M  V30 52 H  25.5059 41.5494 87.7621 0
M  V30 53 H  24.6030 42.7367 85.0665 0
M  V30 54 H  24.2249 44.8896 86.1288 0
M  V30 55 H  24.8449 44.3147 87.6522 0
M  V30 56 H  25.9699 44.4583 84.0435 0
M  V30 57 H  28.2392 45.1727 83.3768 0
M  V30 58 H  29.8896 45.7823 85.0905 0
M  V30 59 H  29.2902 45.7076 87.4942 0
M  V30 60 H  27.0265 44.9988 88.1754 0
M  V30 61 H  22.9955 42.9769 87.4154 0
M  V30 62 H  20.8323 38.1699 83.6163 0
M  V30 63 H  17.5821 38.5833 86.3876 0
M  V30 64 H  18.7269 40.4428 87.5488 0
M  V30 65 H  24.6803 40.1015 85.8812 0
M  V30 END ATOM
M  V30 BEGIN BOND
M  V30 1 2 1 2
M  V30 2 1 1 10
M  V30 3 1 1 37
M  V30 4 1 2 3
M  V30 5 1 2 38
M  V30 6 2 3 4
M  V30 7 1 3 39
M  V30 8 1 4 5
M  V30 9 1 4 40
M  V30 10 1 5 6
M  V30 11 2 5 10
M  V30 12 1 6 7
M  V30 13 1 6 41
M  V30 14 2 7 8
M  V30 15 1 7 9
M  V30 16 1 9 11
M  V30 17 1 9 42
M  V30 18 1 10 11
M  V30 19 1 11 12
M  V30 20 1 11 16
M  V30 21 1 12 13
M  V30 22 1 12 43
M  V30 23 1 12 44
M  V30 24 1 13 14
M  V30 25 1 13 45
M  V30 26 1 13 46
M  V30 27 1 14 15
M  V30 28 1 14 17
M  V30 29 1 14 65
M  V30 30 1 15 16
M  V30 31 1 15 47
M  V30 32 1 15 48
M  V30 33 1 16 49
M  V30 34 1 16 50
M  V30 35 1 17 18
M  V30 36 1 17 51
M  V30 37 1 17 52
M  V30 38 1 18 19
M  V30 39 1 18 26
M  V30 40 1 18 53
M  V30 41 1 19 20
M  V30 42 1 19 54
M  V30 43 1 19 55
M  V30 44 2 20 21
M  V30 45 1 20 25
M  V30 46 1 21 22
M  V30 47 1 21 56
M  V30 48 2 22 23
M  V30 49 1 22 57
M  V30 50 1 23 24
M  V30 51 1 23 58
M  V30 52 2 24 25
M  V30 53 1 24 59
M  V30 54 1 25 60
M  V30 55 1 26 27
M  V30 56 1 26 61
M  V30 57 2 27 28
M  V30 58 1 27 29
M  V30 59 1 28 31
M  V30 60 1 29 30
M  V30 61 2 30 31
M  V30 62 1 30 32
M  V30 63 1 31 36
M  V30 64 2 32 33
M  V30 65 1 32 62
M  V30 66 1 33 34
M  V30 67 1 33 35
M  V30 68 2 35 36
M  V30 69 1 35 63
M  V30 70 1 36 64
M  V30 END BOND
M  V30 END CTAB
M  END
> <s_m_entry_id>
1874

> <s_m_entry_name>
result.2332

> <s_m_Source_Path>
D:\OneDrive - zju.edu.cn\DOC\A-Finished\LCK_VS\Planet\LCK-8617

> <s_m_Source_File>
glide-dock_SP_top1262_2_pv.maegz

> <i_m_Source_File_Index>
1874

> <PLANET_affinity>
8.175

> <i_lp_mmshare_version>
54117

> <i_f3d_flags>
0

> <s_epik_input>
W2NIXTFbY0hdW2NIXVtjSF1jKFtOSF1DKD1PKVtOSF0yKWMxQzIzW0NIMl1bQ0gyXU4oW0NIMl1bQ0gyXTMpW0NIMl1bQ0BIXShbQ0gyXWM0W2NIXVtjSF1bY0hdW2NIXVtjSF00KVtOSF1jKHM1KW5jKGM1NilbY0hdW2NIXWMoRilbY0hdNg==

> <s_epik_cmdline>
J2VwaWtfcHl0aG9uJywgJy1waCcsICc3LjAnLCAnLXRuJywgJzgnLCAnLW1hJywgJzUwMCcsICctaW1hZScsICc8aW5maWxlLm1hZT4nLCAnLW9tYWUnLCAnPG91dGZpbGUubWFlPic=

> <r_epik_Ionization_Penalty>
  0.0152

> <r_epik_Ionization_Penalty_Charging>
  0.0151

> <r_epik_Ionization_Penalty_Neutral>
  0.0001

> <r_epik_State_Penalty>
  0.0119

> <r_epik_Charging_Adjusted_Penalty>
0.0270184

> <i_epik_Tot_Q>
1

> <i_epik_Tot_abs_Q>
1

> <s_lp_Force_Field>
S-OPLS

> <r_lp_Energy>
54.4396

> <b_lp_Chiralities_Consistent>
1

> <s_lp_Variant>
O=C(NC12CCN(C[C@@H](NC3=NC4=CC=C(F)C=C4S3)CC5=CC=CC=C5)CC2)NC6=C1C=CC=C6-1

> <s_i_glide_gridfile>
glide-grid_1

> <i_i_glide_lignum>
1129

> <i_i_glide_rotatable_bonds>
6

> <r_i_docking_score>
-7.06536410318364

> <r_i_glide_ligand_efficiency>
-0.196260113977323

> <r_i_glide_ligand_efficiency_sa>
-0.648036617438806

> <r_i_glide_ligand_efficiency_ln>
-1.54147156323598

> <r_i_glide_gscore>
-7.07726410318364

> <r_i_glide_lipo>
-2.35562049131642

> <r_i_glide_hbond>
-0.358348683999454

> <r_i_glide_metal>
0

> <r_i_glide_rewards>
-1.18862198227681

> <r_i_glide_evdw>
-44.5114707946777

> <r_i_glide_ecoul>
-7.19794082641602

> <r_i_glide_erotb>
0.169859843943066

> <r_i_glide_esite>
-0.0392681258377421

> <r_i_glide_emodel>
-73.4640422801014

> <r_i_glide_energy>
-51.7094116210938

> <r_i_glide_einternal>
3.17602753639221

> <i_i_glide_confnum>
6

> <i_i_glide_posenum>
296

> <r_i_glide_eff_state_penalty>
0.0119

> <s_m_subgroup_title>
glide-dock_SP_top1262_2_pv

> <s_m_subgroupid>
glide-dock_SP_top1262_2_pv

> <b_m_subgroup_collapsed>
0

$$$$
O=C1N([C@@H](C)C2CC2)CC3=CC(C4=C(C)N=C(NC(C)=O)S4)=CC(S(=O)(C)=O)=C31
                    3D
 Schrodinger Suite 2021-3.
  0  0  0     0  0            999 V3000
M  V30 BEGIN CTAB
M  V30 COUNTS 52 55 0 0 0
M  V30 BEGIN ATOM
M  V30 1 C  16.5982 37.3128 88.0442 0
M  V30 2 C  17.8890 36.5103 88.0913 0
M  V30 3 C  17.9278 38.0063 87.9203 0
M  V30 4 C  18.3851 38.6794 86.6095 0 CFG=2
M  V30 5 C  17.6721 38.2133 85.3213 0
M  V30 6 N  19.8459 38.6179 86.4530 0
M  V30 7 C  20.6131 37.3788 86.3993 0
M  V30 8 C  20.5364 39.7106 86.0662 0
M  V30 9 O  20.1046 40.8543 86.0434 0
M  V30 10 C  21.8873 39.2123 85.6493 0
M  V30 11 C  21.9203 37.8374 85.8310 0
M  V30 12 C  22.9840 39.8959 85.0905 0
M  V30 13 S  22.9572 41.6423 84.6085 0
M  V30 14 O  24.2745 41.9569 84.0443 0
M  V30 15 O  21.7558 41.8358 83.7901 0
M  V30 16 C  22.7949 42.6331 86.2015 0
M  V30 17 C  24.1101 39.1440 84.7332 0
M  V30 18 C  24.1136 37.7479 84.8311 0
M  V30 19 C  23.0292 37.0978 85.4240 0
M  V30 20 C  25.1514 36.9697 84.0949 0
M  V30 21 C  24.9965 35.9571 83.1363 0
M  V30 22 C  23.7146 35.3551 82.5971 0
M  V30 23 N  26.1079 35.5134 82.5786 0
M  V30 24 C  27.1731 36.1377 83.0077 0
M  V30 25 S  26.8464 37.3643 84.2106 0
M  V30 26 N  28.4217 35.8284 82.4770 0
M  V30 27 C  29.6287 36.3047 82.8451 0
M  V30 28 O  29.8355 37.1114 83.7503 0
M  V30 29 C  30.8111 35.7769 82.0439 0
M  V30 30 H  16.0346 37.5359 88.9499 0
M  V30 31 H  15.9412 37.1977 87.1850 0
M  V30 32 H  18.1669 35.8885 87.2456 0
M  V30 33 H  18.1982 36.0719 89.0395 0
M  V30 34 H  18.2619 38.5850 88.7796 0
M  V30 35 H  18.0846 39.7231 86.7368 0
M  V30 36 H  16.5942 38.3525 85.3977 0
M  V30 37 H  17.9980 38.7896 84.4549 0
M  V30 38 H  17.8456 37.1579 85.1209 0
M  V30 39 H  20.1105 36.6418 85.7732 0
M  V30 40 H  20.7147 36.9475 87.3956 0
M  V30 41 H  22.7971 43.6899 85.9343 0
M  V30 42 H  21.8593 42.4004 86.7005 0
M  V30 43 H  23.6412 42.4056 86.8459 0
M  V30 44 H  24.9397 39.6295 84.2411 0
M  V30 45 H  23.0224 36.0194 85.4893 0
M  V30 46 H  22.8264 35.8751 82.9498 0
M  V30 47 H  23.6754 35.3988 81.5093 0
M  V30 48 H  23.5973 34.3106 82.8733 0
M  V30 49 H  28.4078 35.1705 81.7089 0
M  V30 50 H  30.9865 36.4042 81.1684 0
M  V30 51 H  30.6335 34.7565 81.7015 0
M  V30 52 H  31.7160 35.7746 82.6543 0
M  V30 END ATOM
M  V30 BEGIN BOND
M  V30 1 1 1 2
M  V30 2 1 1 3
M  V30 3 1 1 30
M  V30 4 1 1 31
M  V30 5 1 2 3
M  V30 6 1 2 32
M  V30 7 1 2 33
M  V30 8 1 3 4
M  V30 9 1 3 34
M  V30 10 1 4 5
M  V30 11 1 4 6
M  V30 12 1 4 35
M  V30 13 1 5 36
M  V30 14 1 5 37
M  V30 15 1 5 38
M  V30 16 1 6 7
M  V30 17 1 6 8
M  V30 18 1 7 11
M  V30 19 1 7 39
M  V30 20 1 7 40
M  V30 21 2 8 9
M  V30 22 1 8 10
M  V30 23 2 10 11
M  V30 24 1 10 12
M  V30 25 1 11 19
M  V30 26 1 12 13
M  V30 27 2 12 17
M  V30 28 2 13 14
M  V30 29 2 13 15
M  V30 30 1 13 16
M  V30 31 1 16 41
M  V30 32 1 16 42
M  V30 33 1 16 43
M  V30 34 1 17 18
M  V30 35 1 17 44
M  V30 36 2 18 19
M  V30 37 1 18 20
M  V30 38 1 19 45
M  V30 39 2 20 21
M  V30 40 1 20 25
M  V30 41 1 21 22
M  V30 42 1 21 23
M  V30 43 1 22 46
M  V30 44 1 22 47
M  V30 45 1 22 48
M  V30 46 2 23 24
M  V30 47 1 24 25
M  V30 48 1 24 26
M  V30 49 1 26 27
M  V30 50 1 26 49
M  V30 51 2 27 28
M  V30 52 1 27 29
M  V30 53 1 29 50
M  V30 54 1 29 51
M  V30 55 1 29 52
M  V30 END BOND
M  V30 END CTAB
M  END
> <s_m_entry_id>
1899

> <s_m_entry_name>
result.7688

> <s_m_Source_Path>
D:\OneDrive - zju.edu.cn\DOC\A-Finished\LCK_VS\Planet\LCK-8617

> <s_m_Source_File>
glide-dock_SP_top1262_2_pv.maegz

> <i_m_Source_File_Index>
1899

> <PLANET_affinity>
7.267

> <i_lp_mmshare_version>
54117

> <i_f3d_flags>
0

> <s_epik_input>
W0NIMl0xW0NIMl1bQ0hdMVtDQEhdKFtDSDNdKU4oQzI9TylbQ0gyXWMoYzIzKVtjSF1jKFtjSF1jM1MoPU8pKD1PKVtDSDNdKS1jNGMoW0NIM10pbmMoczQpW05IXUMoPU8pW0NIM10=

> <s_epik_cmdline>
J2VwaWtfcHl0aG9uJywgJy1waCcsICc3LjAnLCAnLXRuJywgJzgnLCAnLW1hJywgJzUwMCcsICctaW1hZScsICc8aW5maWxlLm1hZT4nLCAnLW9tYWUnLCAnPG91dGZpbGUubWFlPic=

> <r_epik_Ionization_Penalty>
  0.0002

> <r_epik_Ionization_Penalty_Charging>
  0.0000

> <r_epik_Ionization_Penalty_Neutral>
  0.0002

> <r_epik_State_Penalty>
  0.0000

> <r_epik_Charging_Adjusted_Penalty>
0

> <i_epik_Tot_Q>
0

> <i_epik_Tot_abs_Q>
0

> <s_lp_Force_Field>
S-OPLS

> <r_lp_Energy>
13.4977

> <b_lp_Chiralities_Consistent>
1

> <s_lp_Variant>
O=C1N([C@@H](C)C2CC2)CC3=CC(C4=C(C)N=C(NC(C)=O)S4)=CC(S(=O)(C)=O)=C31-1

> <s_i_glide_gridfile>
glide-grid_1

> <i_i_glide_lignum>
2288

> <i_i_glide_rotatable_bonds>
6

> <r_i_docking_score>
-7.05451902605253

> <r_i_glide_ligand_efficiency>
-0.243259276760432

> <r_i_glide_ligand_efficiency_sa>
-0.747369568156374

> <r_i_glide_ligand_efficiency_ln>
-1.61530596979834

> <r_i_glide_gscore>
-7.05451902605253

> <r_i_glide_lipo>
-2.48350729670969

> <r_i_glide_hbond>
-0.190111284565253

> <r_i_glide_metal>
0

> <r_i_glide_rewards>
-1.95351685121965

> <r_i_glide_evdw>
-47.6730194091797

> <r_i_glide_ecoul>
-3.00635933876038

> <r_i_glide_erotb>
0.423660956758506

> <r_i_glide_esite>
-0.0164396790434023

> <r_i_glide_emodel>
-68.2160661557786

> <r_i_glide_energy>
-50.6793787479401

> <r_i_glide_einternal>
8.07532501220703

> <i_i_glide_confnum>
42

> <i_i_glide_posenum>
265

> <r_i_glide_eff_state_penalty>
0

> <r_lp_tautomer_probability>
1

> <s_m_subgroup_title>
glide-dock_SP_top1262_2_pv

> <s_m_subgroupid>
glide-dock_SP_top1262_2_pv

> <b_m_subgroup_collapsed>
0

$$$$
C1(C2=CC=CC(OCCN3CCCCC3)=C2)=NNC4=C1C=C(C=C4)C5=NC=NN5.Cl
                    3D
 Schrodinger Suite 2021-3.
  0  0  0     0  0            999 V3000
M  V30 BEGIN CTAB
M  V30 COUNTS 54 58 0 0 0
M  V30 BEGIN ATOM
M  V30 1 N  19.2635 39.9619 86.7223 0
M  V30 2 N  19.2836 41.1273 87.3616 0
M  V30 3 C  20.5716 41.5568 87.4741 0
M  V30 4 N  21.3770 40.6896 86.9104 0
M  V30 5 C  20.5414 39.7618 86.4463 0
M  V30 6 C  21.0012 38.5947 85.6182 0
M  V30 7 C  20.0586 37.7858 84.9739 0
M  V30 8 C  20.4183 36.7148 84.1619 0
M  V30 9 C  22.3659 38.3254 85.4534 0
M  V30 10 C  22.7754 37.2289 84.6694 0
M  V30 11 C  21.7820 36.4448 84.0300 0
M  V30 12 C  24.0247 36.6436 84.2511 0
M  V30 13 N  23.8018 35.6175 83.4594 0
M  V30 14 N  22.4712 35.4877 83.3149 0
M  V30 15 C  25.4197 37.0957 84.5703 0
M  V30 16 C  25.6706 37.8483 85.7247 0
M  V30 17 C  26.9415 38.3574 85.9786 0
M  V30 18 C  27.9819 38.0981 85.0925 0
M  V30 19 C  27.7783 37.3078 83.9625 0
M  V30 20 C  26.4830 36.8369 83.6889 0
M  V30 21 O  28.9001 37.0574 83.2004 0
M  V30 22 C  28.9345 35.9786 82.2627 0
M  V30 23 C  30.2113 35.1566 82.4894 0
M  V30 24 N  31.4507 36.0212 82.8251 0 CHG=1
M  V30 25 C  32.5751 35.1251 83.4023 0
M  V30 26 C  33.7694 36.0099 83.7993 0
M  V30 27 C  34.2720 36.8569 82.6152 0
M  V30 28 C  33.1373 37.6845 81.9858 0
M  V30 29 C  31.9372 36.8060 81.5857 0
M  V30 30 H  18.4402 41.6222 87.6438 0
M  V30 31 H  20.8098 42.5136 87.9174 0
M  V30 32 H  19.0040 37.9972 85.0859 0
M  V30 33 H  19.6628 36.1316 83.6536 0
M  V30 34 H  23.0908 38.9783 85.9119 0
M  V30 35 H  22.0883 34.7354 82.7502 0
M  V30 36 H  24.8930 38.0344 86.4461 0
M  V30 37 H  27.1210 38.9453 86.8674 0
M  V30 38 H  28.9680 38.4831 85.3036 0
M  V30 39 H  26.2819 36.2802 82.7882 0
M  V30 40 H  28.9136 36.3574 81.2439 0
M  V30 41 H  28.0954 35.2903 82.3463 0
M  V30 42 H  30.4712 34.5249 81.6421 0
M  V30 43 H  30.0574 34.5094 83.3485 0
M  V30 44 H  32.8396 34.3985 82.6302 0
M  V30 45 H  32.1727 34.5911 84.2659 0
M  V30 46 H  34.5760 35.3775 84.1739 0
M  V30 47 H  33.4880 36.6579 84.6305 0
M  V30 48 H  35.0801 37.5119 82.9415 0
M  V30 49 H  34.7042 36.1995 81.8586 0
M  V30 50 H  32.8108 38.4594 82.6817 0
M  V30 51 H  33.5091 38.2102 81.1044 0
M  V30 52 H  32.2057 36.0679 80.8290 0
M  V30 53 H  31.1004 37.4058 81.2245 0
M  V30 54 H  31.1800 36.6894 83.5363 0
M  V30 END ATOM
M  V30 BEGIN BOND
M  V30 1 1 1 2
M  V30 2 2 1 5
M  V30 3 1 2 3
M  V30 4 1 2 30
M  V30 5 2 3 4
M  V30 6 1 3 31
M  V30 7 1 4 5
M  V30 8 1 5 6
M  V30 9 2 6 7
M  V30 10 1 6 9
M  V30 11 1 7 8
M  V30 12 1 7 32
M  V30 13 2 8 11
M  V30 14 1 8 33
M  V30 15 2 9 10
M  V30 16 1 9 34
M  V30 17 1 10 11
M  V30 18 1 10 12
M  V30 19 1 11 14
M  V30 20 2 12 13
M  V30 21 1 12 15
M  V30 22 1 13 14
M  V30 23 1 14 35
M  V30 24 2 15 16
M  V30 25 1 15 20
M  V30 26 1 16 17
M  V30 27 1 16 36
M  V30 28 2 17 18
M  V30 29 1 17 37
M  V30 30 1 18 19
M  V30 31 1 18 38
M  V30 32 2 19 20
M  V30 33 1 19 21
M  V30 34 1 20 39
M  V30 35 1 21 22
M  V30 36 1 22 23
M  V30 37 1 22 40
M  V30 38 1 22 41
M  V30 39 1 23 24
M  V30 40 1 23 42
M  V30 41 1 23 43
M  V30 42 1 24 25
M  V30 43 1 24 29
M  V30 44 1 24 54
M  V30 45 1 25 26
M  V30 46 1 25 44
M  V30 47 1 25 45
M  V30 48 1 26 27
M  V30 49 1 26 46
M  V30 50 1 26 47
M  V30 51 1 27 28
M  V30 52 1 27 48
M  V30 53 1 27 49
M  V30 54 1 28 29
M  V30 55 1 28 50
M  V30 56 1 28 51
M  V30 57 1 29 52
M  V30 58 1 29 53
M  V30 END BOND
M  V30 END CTAB
M  END
> <s_m_entry_id>
1903

> <s_m_entry_name>
result.3275

> <s_m_Source_Path>
D:\OneDrive - zju.edu.cn\DOC\A-Finished\LCK_VS\Planet\LCK-8617

> <s_m_Source_File>
glide-dock_SP_top1262_2_pv.maegz

> <i_m_Source_File_Index>
1903

> <PLANET_affinity>
7.264

> <i_lp_mmshare_version>
54117

> <i_f3d_flags>
0

> <s_epik_input>
bjFbY0hdW25IXW5jMS1jKFtjSF0yKVtjSF1bY0hdYyhjMjMpW25IXW5jMy1jNFtjSF1bY0hdW2NIXWMoW2NIXTQpT1tDSDJdW0NIMl1ONVtDSDJdW0NIMl1bQ0gyXVtDSDJdW0NIMl01

> <s_epik_cmdline>
J2VwaWtfcHl0aG9uJywgJy1waCcsICc3LjAnLCAnLXRuJywgJzgnLCAnLW1hJywgJzUwMCcsICctaW1hZScsICc8aW5maWxlLm1hZT4nLCAnLW9tYWUnLCAnPG91dGZpbGUubWFlPic=

> <r_epik_Ionization_Penalty>
  0.0143

> <r_epik_Ionization_Penalty_Charging>
  0.0122

> <r_epik_Ionization_Penalty_Neutral>
  0.0020

> <r_epik_State_Penalty>
  0.2084

> <r_epik_Charging_Adjusted_Penalty>
0.220578

> <i_epik_Tot_Q>
1

> <i_epik_Tot_abs_Q>
1

> <s_lp_Force_Field>
S-OPLS

> <r_lp_Energy>
42.5164

> <b_lp_Chiralities_Consistent>
1

> <s_lp_Variant>
C1(C2=CC=CC(OCCN3CCCCC3)=C2)=NNC4=C1C=C(C=C4)C5=NC=NN5.Cl-1

> <s_i_glide_gridfile>
glide-grid_1

> <i_i_glide_lignum>
2292

> <i_i_glide_rotatable_bonds>
6

> <r_i_docking_score>
-7.05229383815298

> <r_i_glide_ligand_efficiency>
-0.243182546143206

> <r_i_glide_ligand_efficiency_sa>
-0.747133827390291

> <r_i_glide_ligand_efficiency_ln>
-1.61479645819524

> <r_i_glide_gscore>
-7.26069383815298

> <r_i_glide_lipo>
-2.49740019401118

> <r_i_glide_hbond>
-0.312535753011259

> <r_i_glide_metal>
0

> <r_i_glide_rewards>
-1.62378418128383

> <r_i_glide_evdw>
-34.6967620849609

> <r_i_glide_ecoul>
-10.4388294219971

> <r_i_glide_erotb>
0.642582643983546

> <r_i_glide_esite>
-0.168893836282647

> <r_i_glide_emodel>
-68.1106756140324

> <r_i_glide_energy>
-45.135591506958

> <r_i_glide_einternal>
2.89997386932373

> <i_i_glide_confnum>
67

> <i_i_glide_posenum>
12

> <r_i_glide_eff_state_penalty>
0.2084

> <r_lp_tautomer_probability>
0.930634

> <s_m_subgroup_title>
glide-dock_SP_top1262_2_pv

> <s_m_subgroupid>
glide-dock_SP_top1262_2_pv

> <b_m_subgroup_collapsed>
0

$$$$
O=C(C1=C2C=CC(OC3=NC=NC(NC(C)=O)=C3)=CC2=CC=C1)NC4=CC=C(CN5CCN(C)CC5)C(C(F)(F...
                    3D
 Schrodinger Suite 2021-3.
  0  0  0     0  0            999 V3000
M  V30 BEGIN CTAB
M  V30 COUNTS 72 76 0 0 0
M  V30 BEGIN ATOM
M  V30 1 C  33.3968 34.3927 81.4759 0
M  V30 2 C  33.8456 32.9181 81.5670 0
M  V30 3 N  35.0236 32.8081 82.4321 0 CFG=2
M  V30 4 C  35.5069 31.4309 82.4441 0
M  V30 5 C  34.6774 33.2222 83.7988 0
M  V30 6 C  34.2368 34.7046 83.8316 0
M  V30 7 N  33.0158 34.8985 82.8940 0 CHG=1
M  V30 8 C  32.5152 36.3725 82.8640 0
M  V30 9 C  31.0006 36.5405 83.0452 0
M  V30 10 C  30.4422 37.5613 83.8509 0
M  V30 11 C  31.3140 38.5929 84.5813 0
M  V30 12 F  32.0207 37.9865 85.5363 0
M  V30 13 F  32.1513 39.1779 83.7229 0
M  V30 14 F  30.5935 39.5587 85.1591 0
M  V30 15 C  29.0456 37.6409 83.9851 0
M  V30 16 C  30.1419 35.6587 82.3812 0
M  V30 17 C  28.7657 35.7402 82.5409 0
M  V30 18 C  28.1983 36.7274 83.3538 0
M  V30 19 N  26.8136 36.8487 83.5870 0
M  V30 20 C  25.8665 35.8859 83.5153 0
M  V30 21 O  26.0837 34.7565 83.0895 0
M  V30 22 C  24.4526 36.2602 83.9157 0
M  V30 23 C  23.4122 35.5606 83.2857 0
M  V30 24 C  22.0827 35.9047 83.4648 0
M  V30 25 C  21.7345 36.9763 84.2691 0
M  V30 26 C  22.7300 37.7116 84.9496 0
M  V30 27 C  24.1068 37.3183 84.8428 0
M  V30 28 C  22.3787 38.8497 85.7147 0
M  V30 29 C  23.3463 39.5825 86.3908 0
M  V30 30 C  24.6554 39.1137 86.4313 0
M  V30 31 C  25.0403 38.0115 85.6774 0
M  V30 32 O  22.9487 40.7441 87.0198 0
M  V30 33 C  23.4818 41.9798 86.6908 0
M  V30 34 N  24.6995 42.0525 86.0732 0
M  V30 35 C  25.1572 43.2962 85.7827 0
M  V30 36 N  24.5122 44.4617 86.0311 0
M  V30 37 C  23.2830 44.3631 86.6165 0
M  V30 38 C  22.7331 43.1271 86.9671 0
M  V30 39 N  22.4830 45.4900 86.8451 0
M  V30 40 C  22.8317 46.7903 86.8425 0
M  V30 41 O  23.9769 47.2253 86.7157 0
M  V30 42 C  21.6749 47.7694 87.0150 0
M  V30 43 H  32.5215 34.5005 80.8441 0
M  V30 44 H  34.1870 35.0385 81.0900 0
M  V30 45 H  33.0355 32.2874 81.9331 0
M  V30 46 H  34.0869 32.5576 80.5647 0
M  V30 47 H  36.3915 31.3343 83.0777 0
M  V30 48 H  34.7505 30.7385 82.8187 0
M  V30 49 H  35.7916 31.1115 81.4394 0
M  V30 50 H  35.5519 33.1033 84.4420 0
M  V30 51 H  33.9053 32.5813 84.2245 0
M  V30 52 H  35.0275 35.3803 83.4981 0
M  V30 53 H  33.9182 34.9932 84.8352 0
M  V30 54 H  32.8330 36.8123 81.9184 0
M  V30 55 H  33.0767 36.8758 83.6487 0
M  V30 56 H  28.6089 38.4056 84.6119 0
M  V30 57 H  30.5236 34.8808 81.7364 0
M  V30 58 H  28.1577 35.0158 82.0232 0
M  V30 59 H  26.5000 37.7423 83.9352 0
M  V30 60 H  23.6196 34.7482 82.6018 0
M  V30 61 H  21.3214 35.3435 82.9389 0
M  V30 62 H  20.6960 37.2648 84.3669 0
M  V30 63 H  21.3513 39.1822 85.7347 0
M  V30 64 H  25.3915 39.6412 87.0235 0
M  V30 65 H  26.0693 37.6951 85.7499 0
M  V30 66 H  26.1203 43.3667 85.2976 0
M  V30 67 H  21.7514 43.0506 87.4155 0
M  V30 68 H  21.4958 45.2874 86.9580 0
M  V30 69 H  21.4015 47.8524 88.0675 0
M  V30 70 H  20.7984 47.4370 86.4565 0
M  V30 71 H  21.9485 48.7599 86.6506 0
M  V30 72 H  32.2692 34.3143 83.2429 0
M  V30 END ATOM
M  V30 BEGIN BOND
M  V30 1 1 1 2
M  V30 2 1 1 7
M  V30 3 1 1 43
M  V30 4 1 1 44
M  V30 5 1 2 3
M  V30 6 1 2 45
M  V30 7 1 2 46
M  V30 8 1 3 4
M  V30 9 1 3 5
M  V30 10 1 4 47
M  V30 11 1 4 48
M  V30 12 1 4 49
M  V30 13 1 5 6
M  V30 14 1 5 50
M  V30 15 1 5 51
M  V30 16 1 6 7
M  V30 17 1 6 52
M  V30 18 1 6 53
M  V30 19 1 7 8
M  V30 20 1 7 72
M  V30 21 1 8 9
M  V30 22 1 8 54
M  V30 23 1 8 55
M  V30 24 2 9 10
M  V30 25 1 9 16
M  V30 26 1 10 11
M  V30 27 1 10 15
M  V30 28 1 11 12
M  V30 29 1 11 13
M  V30 30 1 11 14
M  V30 31 2 15 18
M  V30 32 1 15 56
M  V30 33 2 16 17
M  V30 34 1 16 57
M  V30 35 1 17 18
M  V30 36 1 17 58
M  V30 37 1 18 19
M  V30 38 1 19 20
M  V30 39 1 19 59
M  V30 40 2 20 21
M  V30 41 1 20 22
M  V30 42 2 22 23
M  V30 43 1 22 27
M  V30 44 1 23 24
M  V30 45 1 23 60
M  V30 46 2 24 25
M  V30 47 1 24 61
M  V30 48 1 25 26
M  V30 49 1 25 62
M  V30 50 2 26 27
M  V30 51 1 26 28
M  V30 52 1 27 31
M  V30 53 2 28 29
M  V30 54 1 28 63
M  V30 55 1 29 30
M  V30 56 1 29 32
M  V30 57 2 30 31
M  V30 58 1 30 64
M  V30 59 1 31 65
M  V30 60 1 32 33
M  V30 61 2 33 34
M  V30 62 1 33 38
M  V30 63 1 34 35
M  V30 64 2 35 36
M  V30 65 1 35 66
M  V30 66 1 36 37
M  V30 67 2 37 38
M  V30 68 1 37 39
M  V30 69 1 38 67
M  V30 70 1 39 40
M  V30 71 1 39 68
M  V30 72 2 40 41
M  V30 73 1 40 42
M  V30 74 1 42 69
M  V30 75 1 42 70
M  V30 76 1 42 71
M  V30 END BOND
M  V30 END CTAB
M  END
> <s_m_entry_id>
1907

> <s_m_entry_name>
result.1693

> <s_m_Source_Path>
D:\OneDrive - zju.edu.cn\DOC\A-Finished\LCK_VS\Planet\LCK-8617

> <s_m_Source_File>
glide-dock_SP_top1262_2_pv.maegz

> <i_m_Source_File_Index>
1907

> <PLANET_affinity>
8.613

> <i_lp_mmshare_version>
54117

> <i_f3d_flags>
0

> <s_epik_input>
W0NIM11OMVtDSDJdW0NIMl1OKFtDSDJdW0NIMl0xKVtDSDJdYzJjKEMoRikoRilGKVtjSF1jKFtjSF1bY0hdMilbTkhdQyg9TyljKFtjSF1bY0hdW2NIXTMpYyhjMzQpW2NIXVtjSF1jKFtjSF00KU9jNW5bY0hdbmMoW2NIXTUpW05IXUMoPU8pW0NIM10=

> <s_epik_cmdline>
J2VwaWtfcHl0aG9uJywgJy1waCcsICc3LjAnLCAnLXRuJywgJzgnLCAnLW1hJywgJzUwMCcsICctaW1hZScsICc8aW5maWxlLm1hZT4nLCAnLW9tYWUnLCAnPG91dGZpbGUubWFlPic=

> <r_epik_Ionization_Penalty>
  0.0168

> <r_epik_Ionization_Penalty_Charging>
  0.0155

> <r_epik_Ionization_Penalty_Neutral>
  0.0013

> <r_epik_State_Penalty>
  0.2066

> <r_epik_Charging_Adjusted_Penalty>
0.222046

> <i_epik_Tot_Q>
1

> <i_epik_Tot_abs_Q>
1

> <s_lp_Force_Field>
S-OPLS

> <r_lp_Energy>
88.0374

> <b_lp_Chiralities_Consistent>
1

> <s_lp_Variant>
O=C(C1=C2C=CC(OC3=NC=NC(NC(C)=O)=C3)=CC2=CC=C1)NC4=CC=C(CN5CCN(C)CC5)C(C(F)(F...-1

> <s_i_glide_gridfile>
glide-grid_1

> <i_i_glide_lignum>
730

> <i_i_glide_rotatable_bonds>
10

> <r_i_docking_score>
-7.05123514562973

> <r_i_glide_ligand_efficiency>
-0.167886551086422

> <r_i_glide_ligand_efficiency_sa>
-0.583578124167419

> <r_i_glide_ligand_efficiency_ln>
-1.48833407851362

> <r_i_glide_gscore>
-7.25783514562973

> <r_i_glide_lipo>
-2.72389504107881

> <r_i_glide_hbond>
-0.144578342086691

> <r_i_glide_metal>
0

> <r_i_glide_rewards>
-0.910599761947812

> <r_i_glide_evdw>
-46.0231285095215

> <r_i_glide_ecoul>
-9.42660903930664

> <r_i_glide_erotb>
0.39859015829523

> <r_i_glide_esite>
-0.162204377439572

> <r_i_glide_emodel>
-78.9415669541597

> <r_i_glide_energy>
-55.4497375488281

> <r_i_glide_einternal>
13.1639881134033

> <i_i_glide_confnum>
182

> <i_i_glide_posenum>
112

> <r_i_glide_eff_state_penalty>
0.2066

> <r_lp_tautomer_probability>
1

> <s_m_subgroup_title>
glide-dock_SP_top1262_2_pv

> <s_m_subgroupid>
glide-dock_SP_top1262_2_pv

> <b_m_subgroup_collapsed>
0

$$$$
CC1=CC(NC(C2=CC=CC(NC(/C=C/CN(C)C)=O)=C2)=O)=CC=C1NC3=NC=CC(C4=CN=CC=C4)=N3
                    3D
 Schrodinger Suite 2021-3.
  0  0  0     0  0            999 V3000
M  V30 BEGIN CTAB
M  V30 COUNTS 68 71 0 0 0
M  V30 BEGIN ATOM
M  V30 1 C  16.3932 46.3290 90.3511 0
M  V30 2 N  17.3771 46.0847 89.1867 0 CHG=1
M  V30 3 C  16.8851 46.7565 87.8889 0
M  V30 4 C  18.8310 46.5056 89.5089 0
M  V30 5 C  19.5919 45.6015 90.4696 0
M  V30 6 C  19.1985 44.3845 90.9108 0
M  V30 7 C  19.9635 43.5568 91.8127 0
M  V30 8 O  19.3965 42.8566 92.6513 0
M  V30 9 N  21.2992 43.5791 91.6098 0
M  V30 10 C  22.2970 42.8818 92.3118 0
M  V30 11 C  23.4731 42.5935 91.6185 0
M  V30 12 C  22.1861 42.5019 93.6556 0
M  V30 13 C  23.2392 41.8403 94.2889 0
M  V30 14 C  24.4069 41.5474 93.5859 0
M  V30 15 C  24.5298 41.9063 92.2385 0
M  V30 16 C  25.7729 41.5453 91.4678 0
M  V30 17 O  26.8830 41.5569 92.0025 0
M  V30 18 N  25.5377 41.1729 90.1953 0
M  V30 19 C  26.4807 40.7784 89.2481 0
M  V30 20 C  27.5980 41.5566 88.9256 0
M  V30 21 C  28.4636 41.1567 87.8989 0
M  V30 22 C  29.6670 42.0342 87.5731 0
M  V30 23 C  26.2366 39.5943 88.5624 0
M  V30 24 C  27.1008 39.1866 87.5551 0
M  V30 25 C  28.2012 39.9724 87.1799 0
M  V30 26 N  29.0551 39.5891 86.1239 0
M  V30 27 C  28.9168 38.6400 85.1019 0
M  V30 28 N  30.0601 38.2544 84.4847 0
M  V30 29 C  29.9443 37.2714 83.5550 0
M  V30 30 C  28.7191 36.6805 83.2357 0
M  V30 31 C  27.5750 37.1565 83.8959 0
M  V30 32 N  27.6840 38.1518 84.8147 0
M  V30 33 C  26.1962 36.5983 83.6936 0
M  V30 34 C  25.9128 35.6838 82.6696 0
M  V30 35 N  24.6837 35.1564 82.4432 0
M  V30 36 C  23.6661 35.5320 83.2517 0
M  V30 37 C  23.8423 36.4132 84.3149 0
M  V30 38 C  25.1134 36.9505 84.5249 0
M  V30 39 H  16.3591 47.4034 90.5393 0
M  V30 40 H  16.7575 45.7873 91.2240 0
M  V30 41 H  15.4165 45.9540 90.0415 0
M  V30 42 H  16.8831 47.8366 88.0431 0
M  V30 43 H  17.5797 46.4758 87.0959 0
M  V30 44 H  15.8963 46.3564 87.6644 0
M  V30 45 H  19.3620 46.5184 88.5533 0
M  V30 46 H  18.7692 47.5305 89.8796 0
M  V30 47 H  20.5353 46.0157 90.8000 0
M  V30 48 H  18.2538 43.9557 90.6101 0
M  V30 49 H  21.6178 44.0908 90.8008 0
M  V30 50 H  23.5602 42.9012 90.5852 0
M  V30 51 H  21.2981 42.7318 94.2235 0
M  V30 52 H  23.1519 41.5455 95.3243 0
M  V30 53 H  25.2070 41.0218 94.0897 0
M  V30 54 H  24.5732 41.0840 89.9165 0
M  V30 55 H  27.7814 42.4769 89.4608 0
M  V30 56 H  29.6514 42.3253 86.5216 0
M  V30 57 H  29.6927 42.9462 88.1710 0
M  V30 58 H  30.5911 41.4824 87.7478 0
M  V30 59 H  25.3824 38.9801 88.8081 0
M  V30 60 H  26.8922 38.2410 87.0855 0
M  V30 61 H  29.9741 40.0031 86.1635 0
M  V30 62 H  30.8577 36.9493 83.0749 0
M  V30 63 H  28.6856 35.8841 82.5080 0
M  V30 64 H  26.6792 35.3485 81.9899 0
M  V30 65 H  22.7011 35.0889 83.0452 0
M  V30 66 H  23.0149 36.6840 84.9543 0
M  V30 67 H  25.2463 37.6441 85.3423 0
M  V30 68 H  17.4076 45.0926 88.9656 0
M  V30 END ATOM
M  V30 BEGIN BOND
M  V30 1 1 1 2
M  V30 2 1 1 39
M  V30 3 1 1 40
M  V30 4 1 1 41
M  V30 5 1 2 3
M  V30 6 1 2 4
M  V30 7 1 2 68
M  V30 8 1 3 42
M  V30 9 1 3 43
M  V30 10 1 3 44
M  V30 11 1 4 5
M  V30 12 1 4 45
M  V30 13 1 4 46
M  V30 14 2 5 6
M  V30 15 1 5 47
M  V30 16 1 6 7
M  V30 17 1 6 48
M  V30 18 2 7 8
M  V30 19 1 7 9
M  V30 20 1 9 10
M  V30 21 1 9 49
M  V30 22 2 10 11
M  V30 23 1 10 12
M  V30 24 1 11 15
M  V30 25 1 11 50
M  V30 26 2 12 13
M  V30 27 1 12 51
M  V30 28 1 13 14
M  V30 29 1 13 52
M  V30 30 2 14 15
M  V30 31 1 14 53
M  V30 32 1 15 16
M  V30 33 2 16 17
M  V30 34 1 16 18
M  V30 35 1 18 19
M  V30 36 1 18 54
M  V30 37 2 19 20
M  V30 38 1 19 23
M  V30 39 1 20 21
M  V30 40 1 20 55
M  V30 41 1 21 22
M  V30 42 2 21 25
M  V30 43 1 22 56
M  V30 44 1 22 57
M  V30 45 1 22 58
M  V30 46 2 23 24
M  V30 47 1 23 59
M  V30 48 1 24 25
M  V30 49 1 24 60
M  V30 50 1 25 26
M  V30 51 1 26 27
M  V30 52 1 26 61
M  V30 53 2 27 28
M  V30 54 1 27 32
M  V30 55 1 28 29
M  V30 56 2 29 30
M  V30 57 1 29 62
M  V30 58 1 30 31
M  V30 59 1 30 63
M  V30 60 2 31 32
M  V30 61 1 31 33
M  V30 62 2 33 34
M  V30 63 1 33 38
M  V30 64 1 34 35
M  V30 65 1 34 64
M  V30 66 2 35 36
M  V30 67 1 36 37
M  V30 68 1 36 65
M  V30 69 2 37 38
M  V30 70 1 37 66
M  V30 71 1 38 67
M  V30 END BOND
M  V30 END CTAB
M  END
> <s_m_entry_id>
1911

> <s_m_entry_name>
result.4507

> <s_m_Source_Path>
D:\OneDrive - zju.edu.cn\DOC\A-Finished\LCK_VS\Planet\LCK-8617

> <s_m_Source_File>
glide-dock_SP_top1262_2_pv.maegz

> <i_m_Source_File_Index>
1911

> <PLANET_affinity>
8.183

> <i_lp_mmshare_version>
54117

> <i_f3d_flags>
0

> <s_epik_input>
W0NIM11OKFtDSDNdKVtDSDJdL1tDSF09W0NIXS9DKD1PKVtOSF1jMVtjSF1jKFtjSF1bY0hdW2NIXTEpQyg9TylbTkhdYzJbY0hdYyhbQ0gzXSljKFtjSF1bY0hdMilbTkhdYzNuW2NIXVtjSF1jKG4zKS1jNFtjSF1uW2NIXVtjSF1bY0hdNA==

> <s_epik_cmdline>
J2VwaWtfcHl0aG9uJywgJy1waCcsICc3LjAnLCAnLXRuJywgJzgnLCAnLW1hJywgJzUwMCcsICctaW1hZScsICc8aW5maWxlLm1hZT4nLCAnLW9tYWUnLCAnPG91dGZpbGUubWFlPic=

> <r_epik_Ionization_Penalty>
  0.1652

> <r_epik_Ionization_Penalty_Charging>
  0.1646

> <r_epik_Ionization_Penalty_Neutral>
  0.0006

> <r_epik_State_Penalty>
  0.1823

> <r_epik_Charging_Adjusted_Penalty>
0.346862

> <i_epik_Tot_Q>
1

> <i_epik_Tot_abs_Q>
1

> <s_lp_Force_Field>
S-OPLS

> <r_lp_Energy>
73.7929

> <b_lp_Chiralities_Consistent>
1

> <s_lp_Variant>
CC1=CC(NC(C2=CC=CC(NC(/C=C/CN(C)C)=O)=C2)=O)=CC=C1NC3=NC=CC(C4=CN=CC=C4)=N3-1

> <s_i_glide_gridfile>
glide-grid_1

> <i_i_glide_lignum>
1110

> <i_i_glide_rotatable_bonds>
11

> <r_i_docking_score>
-7.04765410708716

> <r_i_glide_ligand_efficiency>
-0.185464581765451

> <r_i_glide_ligand_efficiency_sa>
-0.623527361971658

> <r_i_glide_ligand_efficiency_ln>
-1.51968154646704

> <r_i_glide_gscore>
-7.22995410708716

> <r_i_glide_lipo>
-2.85081347256198

> <r_i_glide_hbond>
-0.414378548368963

> <r_i_glide_metal>
0

> <r_i_glide_rewards>
-0.66195930214144

> <r_i_glide_evdw>
-47.450080871582

> <r_i_glide_ecoul>
-10.5111198425293

> <r_i_glide_erotb>
0.791529074521609

> <r_i_glide_esite>
-0.145159838577888

> <r_i_glide_emodel>
-86.3490673009465

> <r_i_glide_energy>
-57.9612007141113

> <r_i_glide_einternal>
6.0787181854248

> <i_i_glide_confnum>
284

> <i_i_glide_posenum>
107

> <r_i_glide_eff_state_penalty>
0.1823

> <r_lp_tautomer_probability>
1

> <s_m_subgroup_title>
glide-dock_SP_top1262_2_pv

> <s_m_subgroupid>
glide-dock_SP_top1262_2_pv

> <b_m_subgroup_collapsed>
0

$$$$
COC1=C(OC)C2=C(C=C1)C(CC3=CC=CC=C3F)=C4N(C2=O)CCC(C4=C5)=CC6=C5OCO6
                    3D
 Schrodinger Suite 2021-3.
  0  0  0     0  0            999 V3000
M  V30 BEGIN CTAB
M  V30 COUNTS 56 61 0 0 0
M  V30 BEGIN ATOM
M  V30 1 F  26.4776 39.8511 88.8135 0
M  V30 2 C  25.9342 40.5463 87.7869 0
M  V30 3 C  25.8376 41.9353 87.8755 0
M  V30 4 C  25.2749 42.6673 86.8305 0
M  V30 5 C  24.8067 42.0112 85.6940 0
M  V30 6 C  24.9025 40.6227 85.6024 0
M  V30 7 C  25.4702 39.8760 86.6478 0
M  V30 8 C  25.5625 38.3463 86.5839 0
M  V30 9 C  24.6181 37.6295 85.5973 0
M  V30 10 C  23.1610 37.6473 85.9237 0
M  V30 11 C  22.2629 36.9819 85.0673 0
M  V30 12 C  22.6469 38.3480 87.0249 0
M  V30 13 C  21.2836 38.3872 87.2842 0
M  V30 14 C  20.3835 37.7347 86.4420 0
M  V30 15 O  19.0249 37.6889 86.6863 0
M  V30 16 C  18.4116 38.7632 87.3862 0
M  V30 17 C  20.8697 37.0676 85.3068 0
M  V30 18 O  19.9505 36.5090 84.4428 0
M  V30 19 C  19.1584 37.4536 83.7199 0
M  V30 20 C  25.0287 36.9661 84.4734 0
M  V30 21 N  24.1530 36.1644 83.7230 0
M  V30 22 C  22.7850 36.1748 83.8834 0
M  V30 23 O  22.0483 35.5565 83.1119 0
M  V30 24 C  24.6787 35.2566 82.6602 0
M  V30 25 C  26.0966 34.7571 83.0068 0
M  V30 26 C  26.9970 35.9416 83.2434 0
M  V30 27 C  26.4420 37.0461 83.9327 0
M  V30 28 C  27.2295 38.2100 84.0658 0
M  V30 29 C  28.5574 38.1757 83.6693 0
M  V30 30 C  29.1070 37.0645 83.1093 0
M  V30 31 C  28.3442 35.9409 82.8422 0
M  V30 32 O  30.4095 37.3092 82.8058 0
M  V30 33 C  30.7037 38.5517 83.3869 0
M  V30 34 O  29.4863 39.1659 83.7160 0
M  V30 35 H  26.1992 42.4417 88.7575 0
M  V30 36 H  25.1973 43.7430 86.9014 0
M  V30 37 H  24.3680 42.5780 84.8853 0
M  V30 38 H  24.5291 40.1342 84.7133 0
M  V30 39 H  26.6044 38.0388 86.5013 0
M  V30 40 H  25.2920 37.9569 87.5648 0
M  V30 41 H  23.2881 38.8792 87.7115 0
M  V30 42 H  20.9397 38.9300 88.1466 0
M  V30 43 H  17.3301 38.6574 87.3008 0
M  V30 44 H  18.6773 39.7343 86.9673 0
M  V30 45 H  18.6629 38.7505 88.4437 0
M  V30 46 H  18.3329 36.9263 83.2436 0
M  V30 47 H  19.7490 37.9565 82.9496 0
M  V30 48 H  18.7079 38.2301 84.3418 0
M  V30 49 H  24.0478 34.3716 82.5589 0
M  V30 50 H  24.6558 35.7446 81.6853 0
M  V30 51 H  26.0817 34.1332 83.9008 0
M  V30 52 H  26.4829 34.1307 82.2035 0
M  V30 53 H  26.8317 39.1206 84.4784 0
M  V30 54 H  28.7742 35.0842 82.3419 0
M  V30 55 H  31.2812 38.3916 84.3001 0
M  V30 56 H  31.2803 39.1800 82.7026 0
M  V30 END ATOM
M  V30 BEGIN BOND
M  V30 1 1 1 2
M  V30 2 2 2 3
M  V30 3 1 2 7
M  V30 4 1 3 4
M  V30 5 1 3 35
M  V30 6 2 4 5
M  V30 7 1 4 36
M  V30 8 1 5 6
M  V30 9 1 5 37
M  V30 10 2 6 7
M  V30 11 1 6 38
M  V30 12 1 7 8
M  V30 13 1 8 9
M  V30 14 1 8 39
M  V30 15 1 8 40
M  V30 16 1 9 10
M  V30 17 2 9 20
M  V30 18 1 10 11
M  V30 19 2 10 12
M  V30 20 2 11 17
M  V30 21 1 11 22
M  V30 22 1 12 13
M  V30 23 1 12 41
M  V30 24 2 13 14
M  V30 25 1 13 42
M  V30 26 1 14 15
M  V30 27 1 14 17
M  V30 28 1 15 16
M  V30 29 1 16 43
M  V30 30 1 16 44
M  V30 31 1 16 45
M  V30 32 1 17 18
M  V30 33 1 18 19
M  V30 34 1 19 46
M  V30 35 1 19 47
M  V30 36 1 19 48
M  V30 37 1 20 21
M  V30 38 1 20 27
M  V30 39 1 21 22
M  V30 40 1 21 24
M  V30 41 2 22 23
M  V30 42 1 24 25
M  V30 43 1 24 49
M  V30 44 1 24 50
M  V30 45 1 25 26
M  V30 46 1 25 51
M  V30 47 1 25 52
M  V30 48 2 26 27
M  V30 49 1 26 31
M  V30 50 1 27 28
M  V30 51 2 28 29
M  V30 52 1 28 53
M  V30 53 1 29 30
M  V30 54 1 29 34
M  V30 55 2 30 31
M  V30 56 1 30 32
M  V30 57 1 31 54
M  V30 58 1 32 33
M  V30 59 1 33 34
M  V30 60 1 33 55
M  V30 61 1 33 56
M  V30 END BOND
M  V30 END CTAB
M  END
> <s_m_entry_id>
1915

> <s_m_entry_name>
result.2058

> <s_m_Source_Path>
D:\OneDrive - zju.edu.cn\DOC\A-Finished\LCK_VS\Planet\LCK-8617

> <s_m_Source_File>
glide-dock_SP_top1262_2_pv.maegz

> <i_m_Source_File_Index>
1915

> <PLANET_affinity>
7.14

> <i_lp_mmshare_version>
54117

> <i_f3d_flags>
0

> <s_epik_input>
RmMxW2NIXVtjSF1bY0hdW2NIXWMxW0NIMl1jMmMobjNjKD1PKWMoYzI0KWMoT1tDSDNdKWMoW2NIXVtjSF00KU9bQ0gzXSljNWMoW0NIMl1bQ0gyXTMpW2NIXWM2YyhbY0hdNSlPW0NIMl1PNg==

> <s_epik_cmdline>
J2VwaWtfcHl0aG9uJywgJy1waCcsICc3LjAnLCAnLXRuJywgJzgnLCAnLW1hJywgJzUwMCcsICctaW1hZScsICc8aW5maWxlLm1hZT4nLCAnLW9tYWUnLCAnPG91dGZpbGUubWFlPic=

> <r_epik_Ionization_Penalty>
  0.0000

> <r_epik_Ionization_Penalty_Charging>
  0.0000

> <r_epik_Ionization_Penalty_Neutral>
  0.0000

> <r_epik_State_Penalty>
  0.0000

> <r_epik_Charging_Adjusted_Penalty>
4.76428e-07

> <i_epik_Tot_Q>
0

> <i_epik_Tot_abs_Q>
0

> <s_epik_Chemistry_Notes>
This compound contains an acetal/aminal-like group ( X-CH(R)-Y where X, Y are N, S, or O) that may be acid/base labile, releasing an aldehyde.

> <s_lp_Force_Field>
S-OPLS

> <r_lp_Energy>
78.8188

> <b_lp_Chiralities_Consistent>
1

> <s_lp_Variant>
COC1=C(OC)C2=C(C=C1)C(CC3=CC=CC=C3F)=C4N(C2=O)CCC(C4=C5)=CC6=C5OCO6-1

> <s_i_glide_gridfile>
glide-grid_1

> <i_i_glide_lignum>
2477

> <i_i_glide_rotatable_bonds>
4

> <r_i_docking_score>
-7.04649784757124

> <r_i_glide_ligand_efficiency>
-0.207249936693272

> <r_i_glide_ligand_efficiency_sa>
-0.671409339936324

> <r_i_glide_ligand_efficiency_ln>
-1.55676902209834

> <r_i_glide_gscore>
-7.04649784757124

> <r_i_glide_lipo>
-3.4886011087222

> <r_i_glide_hbond>
-0.32

> <r_i_glide_metal>
0

> <r_i_glide_rewards>
-1.06267242177753

> <r_i_glide_evdw>
-42.8130760192871

> <r_i_glide_ecoul>
-1.50127327442169

> <r_i_glide_erotb>
0.190620475056098

> <r_i_glide_esite>
0

> <r_i_glide_emodel>
-60.8303041265236

> <r_i_glide_energy>
-44.3143492937088

> <r_i_glide_einternal>
1.81745958328247

> <i_i_glide_confnum>
1

> <i_i_glide_posenum>
169

> <r_i_glide_eff_state_penalty>
0

> <r_lp_tautomer_probability>
1

> <s_m_subgroup_title>
glide-dock_SP_top1262_2_pv

> <s_m_subgroupid>
glide-dock_SP_top1262_2_pv

> <b_m_subgroup_collapsed>
0

$$$$
C1(NC2=CC=C3N=CNC3=C2)=NC=CC(NC4=NNC(C5CC5)=C4)=N1
                    3D
 Schrodinger Suite 2021-3.
  0  0  0     0  0            999 V3000
M  V30 BEGIN CTAB
M  V30 COUNTS 41 45 0 0 0
M  V30 BEGIN ATOM
M  V30 1 N  32.1189 38.6243 84.7943 0
M  V30 2 C  31.5262 39.4298 85.6374 0
M  V30 3 N  30.1566 39.3125 85.6467 0
M  V30 4 C  29.8333 38.3358 84.7334 0
M  V30 5 C  31.0897 37.9272 84.2165 0
M  V30 6 C  28.6269 37.7684 84.3179 0
M  V30 7 C  28.7053 36.7564 83.3504 0
M  V30 8 C  29.9386 36.3535 82.8247 0
M  V30 9 C  31.1418 36.9229 83.2429 0
M  V30 10 N  27.5784 36.1020 82.8360 0
M  V30 11 C  26.2088 36.1013 83.1115 0
M  V30 12 N  25.4755 35.3914 82.2214 0
M  V30 13 C  24.1442 35.3098 82.4470 0
M  V30 14 C  23.5482 35.8932 83.5617 0
M  V30 15 C  24.3692 36.6462 84.4128 0
M  V30 16 N  25.7068 36.7405 84.1994 0
M  V30 17 N  23.9080 37.3390 85.5374 0
M  V30 18 C  22.6327 37.5226 86.0080 0
M  V30 19 N  22.4821 37.9344 87.2452 0
M  V30 20 N  21.1660 37.9261 87.4591 0
M  V30 21 C  20.4231 37.5703 86.3668 0
M  V30 22 C  21.3772 37.3799 85.3865 0
M  V30 23 C  18.9158 37.4599 86.3730 0
M  V30 24 C  18.1849 36.8779 87.5629 0
M  V30 25 C  18.0829 38.3577 87.2475 0
M  V30 26 H  32.0115 40.1356 86.2942 0
M  V30 27 H  29.5537 39.8529 86.2477 0
M  V30 28 H  27.6895 38.1008 84.7278 0
M  V30 29 H  29.9762 35.5712 82.0764 0
M  V30 30 H  32.0846 36.5935 82.8323 0
M  V30 31 H  27.7828 35.5487 82.0140 0
M  V30 32 H  23.5590 34.7566 81.7310 0
M  V30 33 H  22.4983 35.7441 83.7240 0
M  V30 34 H  24.6709 37.7666 86.0397 0
M  V30 35 H  20.7695 38.1773 88.3521 0
M  V30 36 H  21.1649 37.1338 84.3583 0
M  V30 37 H  18.4947 37.2309 85.3924 0
M  V30 38 H  18.7527 36.5525 88.4351 0
M  V30 39 H  17.3220 36.2376 87.3763 0
M  V30 40 H  17.1538 38.7525 86.8380 0
M  V30 41 H  18.5763 39.0845 87.8923 0
M  V30 END ATOM
M  V30 BEGIN BOND
M  V30 1 2 1 2
M  V30 2 1 1 5
M  V30 3 1 2 3
M  V30 4 1 2 26
M  V30 5 1 3 4
M  V30 6 1 3 27
M  V30 7 2 4 5
M  V30 8 1 4 6
M  V30 9 1 5 9
M  V30 10 2 6 7
M  V30 11 1 6 28
M  V30 12 1 7 8
M  V30 13 1 7 10
M  V30 14 2 8 9
M  V30 15 1 8 29
M  V30 16 1 9 30
M  V30 17 1 10 11
M  V30 18 1 10 31
M  V30 19 2 11 12
M  V30 20 1 11 16
M  V30 21 1 12 13
M  V30 22 2 13 14
M  V30 23 1 13 32
M  V30 24 1 14 15
M  V30 25 1 14 33
M  V30 26 2 15 16
M  V30 27 1 15 17
M  V30 28 1 17 18
M  V30 29 1 17 34
M  V30 30 2 18 19
M  V30 31 1 18 22
M  V30 32 1 19 20
M  V30 33 1 20 21
M  V30 34 1 20 35
M  V30 35 2 21 22
M  V30 36 1 21 23
M  V30 37 1 22 36
M  V30 38 1 23 24
M  V30 39 1 23 25
M  V30 40 1 23 37
M  V30 41 1 24 25
M  V30 42 1 24 38
M  V30 43 1 24 39
M  V30 44 1 25 40
M  V30 45 1 25 41
M  V30 END BOND
M  V30 END CTAB
M  END
> <s_m_entry_id>
1917

> <s_m_entry_name>
result.2666

> <s_m_Source_Path>
D:\OneDrive - zju.edu.cn\DOC\A-Finished\LCK_VS\Planet\LCK-8617

> <s_m_Source_File>
glide-dock_SP_top1262_2_pv.maegz

> <i_m_Source_File_Index>
1917

> <PLANET_affinity>
7.619

> <i_lp_mmshare_version>
54117

> <i_f3d_flags>
0

> <s_epik_input>
W25IXTFbY0hdbmMoYzEyKVtjSF1bY0hdYyhbY0hdMilbTkhdYzNuW2NIXVtjSF1jKG4zKVtOSF1jNG5bbkhdYyhbY0hdNClbQ0hdNVtDSDJdW0NIMl01

> <s_epik_cmdline>
J2VwaWtfcHl0aG9uJywgJy1waCcsICc3LjAnLCAnLXRuJywgJzgnLCAnLW1hJywgJzUwMCcsICctaW1hZScsICc8aW5maWxlLm1hZT4nLCAnLW9tYWUnLCAnPG91dGZpbGUubWFlPic=

> <r_epik_Ionization_Penalty>
  0.0584

> <r_epik_Ionization_Penalty_Charging>
  0.0000

> <r_epik_Ionization_Penalty_Neutral>
  0.0584

> <r_epik_State_Penalty>
  0.3261

> <r_epik_Charging_Adjusted_Penalty>
0.32615

> <i_epik_Tot_Q>
0

> <i_epik_Tot_abs_Q>
0

> <s_lp_Force_Field>
S-OPLS

> <r_lp_Energy>
27.5928

> <b_lp_Chiralities_Consistent>
1

> <s_lp_Variant>
C1(NC2=CC=C3N=CNC3=C2)=NC=CC(NC4=NNC(C5CC5)=C4)=N1-1

> <s_i_glide_gridfile>
glide-grid_1

> <i_i_glide_lignum>
1773

> <i_i_glide_rotatable_bonds>
5

> <r_i_docking_score>
-7.04510629293423

> <r_i_glide_ligand_efficiency>
-0.281804251717369

> <r_i_glide_ligand_efficiency_sa>
-0.824000629841273

> <r_i_glide_ligand_efficiency_ln>
-1.66990131622429

> <r_i_glide_gscore>
-7.37120629293423

> <r_i_glide_lipo>
-2.71481990422306

> <r_i_glide_hbond>
-0.451806563420225

> <r_i_glide_metal>
0

> <r_i_glide_rewards>
-2.39708122463481

> <r_i_glide_evdw>
-39.5778884887695

> <r_i_glide_ecoul>
-2.81288504600525

> <r_i_glide_erotb>
0.596724679505844

> <r_i_glide_esite>
-0.00339609882271391

> <r_i_glide_emodel>
-63.4115670283282

> <r_i_glide_energy>
-42.3907735347748

> <r_i_glide_einternal>
2.53385186195374

> <i_i_glide_confnum>
9

> <i_i_glide_posenum>
119

> <r_i_glide_eff_state_penalty>
0.3261

> <r_lp_tautomer_probability>
0.8426

> <s_m_subgroup_title>
glide-dock_SP_top1262_2_pv

> <s_m_subgroupid>
glide-dock_SP_top1262_2_pv

> <b_m_subgroup_collapsed>
0

$$$$
O=S(C1=CC=C2N=CC=C(C2=C1)NC3=CC=C4SC=NC4=C3)(C(C)C)=O
                    3D
 Schrodinger Suite 2021-3.
  0  0  0     0  0            999 V3000
M  V30 BEGIN CTAB
M  V30 COUNTS 43 46 0 0 0
M  V30 BEGIN ATOM
M  V30 1 C  29.3899 41.8929 85.2431 0
M  V30 2 C  28.5642 40.8312 84.4968 0
M  V30 3 C  27.0708 41.2087 84.4432 0
M  V30 4 S  28.8056 39.1578 85.3708 0
M  V30 5 O  30.1945 38.7301 85.1753 0
M  V30 6 O  28.2440 39.2620 86.7236 0
M  V30 7 C  27.7690 38.0012 84.4766 0
M  V30 8 C  28.2962 37.1564 83.4998 0
M  V30 9 C  27.4792 36.2343 82.8452 0
M  V30 10 C  26.4168 37.9412 84.8012 0
M  V30 11 C  25.5530 37.0201 84.1592 0
M  V30 12 C  26.1036 36.1394 83.1752 0
M  V30 13 C  24.1572 36.9347 84.4435 0
M  V30 14 C  23.4091 35.9569 83.7802 0
M  V30 15 C  24.0260 35.1418 82.8434 0
M  V30 16 N  25.3408 35.2141 82.5317 0
M  V30 17 N  23.5238 37.9001 85.2460 0
M  V30 18 C  22.2504 37.9039 85.8131 0
M  V30 19 C  21.5131 39.0886 85.7868 0
M  V30 20 C  20.2200 39.1602 86.3079 0
M  V30 21 C  21.7460 36.7542 86.4157 0
M  V30 22 C  20.4716 36.8109 86.9821 0
M  V30 23 C  19.7018 38.0028 86.9018 0
M  V30 24 N  19.8848 35.7844 87.6435 0
M  V30 25 C  18.6960 36.1230 88.0435 0
M  V30 26 S  18.1346 37.7211 87.6434 0
M  V30 27 H  29.2863 42.8752 84.7805 0
M  V30 28 H  30.4505 41.6410 85.2362 0
M  V30 29 H  29.0800 41.9818 86.2854 0
M  V30 30 H  28.9557 40.7048 83.4880 0
M  V30 31 H  26.9338 42.2133 84.0436 0
M  V30 32 H  26.5079 40.5316 83.8014 0
M  V30 33 H  26.6174 41.1868 85.4345 0
M  V30 34 H  29.3484 37.2012 83.2552 0
M  V30 35 H  27.8927 35.5757 82.0930 0
M  V30 36 H  26.0226 38.5951 85.5658 0
M  V30 37 H  22.3454 35.8624 83.9360 0
M  V30 38 H  23.4454 34.4013 82.3114 0
M  V30 39 H  23.9821 38.7977 85.2618 0
M  V30 40 H  21.9342 39.9699 85.3247 0
M  V30 41 H  19.6433 40.0744 86.2607 0
M  V30 42 H  22.3337 35.8503 86.4699 0
M  V30 43 H  18.0843 35.4685 88.6403 0
M  V30 END ATOM
M  V30 BEGIN BOND
M  V30 1 1 1 2
M  V30 2 1 1 27
M  V30 3 1 1 28
M  V30 4 1 1 29
M  V30 5 1 2 3
M  V30 6 1 2 4
M  V30 7 1 2 30
M  V30 8 1 3 31
M  V30 9 1 3 32
M  V30 10 1 3 33
M  V30 11 2 4 5
M  V30 12 2 4 6
M  V30 13 1 4 7
M  V30 14 2 7 8
M  V30 15 1 7 10
M  V30 16 1 8 9
M  V30 17 1 8 34
M  V30 18 2 9 12
M  V30 19 1 9 35
M  V30 20 2 10 11
M  V30 21 1 10 36
M  V30 22 1 11 12
M  V30 23 1 11 13
M  V30 24 1 12 16
M  V30 25 2 13 14
M  V30 26 1 13 17
M  V30 27 1 14 15
M  V30 28 1 14 37
M  V30 29 2 15 16
M  V30 30 1 15 38
M  V30 31 1 17 18
M  V30 32 1 17 39
M  V30 33 2 18 19
M  V30 34 1 18 21
M  V30 35 1 19 20
M  V30 36 1 19 40
M  V30 37 2 20 23
M  V30 38 1 20 41
M  V30 39 2 21 22
M  V30 40 1 21 42
M  V30 41 1 22 23
M  V30 42 1 22 24
M  V30 43 1 23 26
M  V30 44 2 24 25
M  V30 45 1 25 26
M  V30 46 1 25 43
M  V30 END BOND
M  V30 END CTAB
M  END
> <s_m_entry_id>
1922

> <s_m_entry_name>
result.7661

> <s_m_Source_Path>
D:\OneDrive - zju.edu.cn\DOC\A-Finished\LCK_VS\Planet\LCK-8617

> <s_m_Source_File>
glide-dock_SP_top1262_2_pv.maegz

> <i_m_Source_File_Index>
1922

> <PLANET_affinity>
7.03

> <i_lp_mmshare_version>
54117

> <i_f3d_flags>
0

> <s_epik_input>
W0NIM11bQ0hdKFtDSDNdKVMoPU8pKD1PKWMoW2NIXTEpW2NIXVtjSF1jKGMxMiluW2NIXVtjSF1jMltOSF1jKFtjSF0zKVtjSF1bY0hdYyhjMzQpc1tjSF1uNA==

> <s_epik_cmdline>
J2VwaWtfcHl0aG9uJywgJy1waCcsICc3LjAnLCAnLXRuJywgJzgnLCAnLW1hJywgJzUwMCcsICctaW1hZScsICc8aW5maWxlLm1hZT4nLCAnLW9tYWUnLCAnPG91dGZpbGUubWFlPic=

> <r_epik_Ionization_Penalty>
  0.0363

> <r_epik_Ionization_Penalty_Charging>
  0.0000

> <r_epik_Ionization_Penalty_Neutral>
  0.0363

> <r_epik_State_Penalty>
  0.0303

> <r_epik_Charging_Adjusted_Penalty>
0.0302933

> <i_epik_Tot_Q>
0

> <i_epik_Tot_abs_Q>
0

> <s_lp_Force_Field>
S-OPLS

> <r_lp_Energy>
28.5972

> <b_lp_Chiralities_Consistent>
1

> <s_lp_Variant>
O=S(C1=CC=C2N=CC=C(C2=C1)NC3=CC=C4SC=NC4=C3)(C(C)C)=O-1

> <s_i_glide_gridfile>
glide-grid_1

> <i_i_glide_lignum>
2654

> <i_i_glide_rotatable_bonds>
4

> <r_i_docking_score>
-7.04341842242446

> <r_i_glide_ligand_efficiency>
-0.270900708554787

> <r_i_glide_ligand_efficiency_sa>
-0.80254228315074

> <r_i_glide_ligand_efficiency_ln>
-1.65412370516549

> <r_i_glide_gscore>
-7.07371842242446

> <r_i_glide_lipo>
-3.30839069829086

> <r_i_glide_hbond>
-0.236652334579733

> <r_i_glide_metal>
0

> <r_i_glide_rewards>
-1.68838700902396

> <r_i_glide_evdw>
-41.8922119140625

> <r_i_glide_ecoul>
-0.947269320487976

> <r_i_glide_erotb>
0.39641261324642

> <r_i_glide_esite>
0

> <r_i_glide_emodel>
-59.885568379462

> <r_i_glide_energy>
-42.8394812345505

> <r_i_glide_einternal>
5.48188352584839

> <i_i_glide_confnum>
2

> <i_i_glide_posenum>
130

> <r_i_glide_eff_state_penalty>
0.0303

> <s_m_subgroup_title>
glide-dock_SP_top1262_2_pv

> <s_m_subgroupid>
glide-dock_SP_top1262_2_pv

> <b_m_subgroup_collapsed>
0

$$$$
O=C(C1=CC=C(NC2=NC=CC(C3=CC4=CC=CC=C4S3)=N2)C=C1)N5CCC(N6CCCC6)CC5
                    3D
 Schrodinger Suite 2021-3.
  0  0  0     0  0            999 V3000
M  V30 BEGIN CTAB
M  V30 COUNTS 65 70 0 0 0
M  V30 BEGIN ATOM
M  V30 1 C  34.4981 37.1409 88.0177 0
M  V30 2 C  35.2823 37.1391 89.3348 0
M  V30 3 C  36.7458 36.8329 88.9958 0
M  V30 4 C  36.8341 36.7046 87.4746 0
M  V30 5 N  35.3989 36.3568 87.0453 0 CHG=1
M  V30 6 C  35.1117 36.4418 85.5261 0
M  V30 7 C  33.7404 35.8047 85.2174 0
M  V30 8 C  33.4424 35.8647 83.7053 0
M  V30 9 C  35.2184 37.8736 84.9367 0
M  V30 10 C  34.8029 37.9076 83.4416 0
M  V30 11 N  33.4634 37.2935 83.3158 0
M  V30 12 C  32.3556 38.0778 83.4620 0
M  V30 13 O  32.4242 39.2755 83.7537 0
M  V30 14 C  30.9926 37.4614 83.2439 0
M  V30 15 C  30.7810 36.5095 82.2379 0
M  V30 16 C  29.5221 35.9536 82.0524 0
M  V30 17 C  28.4459 36.3557 82.8433 0
M  V30 18 C  28.6453 37.3285 83.8288 0
M  V30 19 C  29.9083 37.8809 84.0229 0
M  V30 20 N  27.2087 35.7586 82.5554 0
M  V30 21 C  25.9134 35.8662 83.0737 0
M  V30 22 N  24.9864 35.1002 82.4492 0
M  V30 23 C  23.7186 35.1585 82.9278 0
M  V30 24 C  23.3638 35.9740 84.0015 0
M  V30 25 C  24.3744 36.7630 84.5672 0
M  V30 26 N  25.6571 36.6934 84.1183 0
M  V30 27 C  24.1461 37.7532 85.6694 0
M  V30 28 C  25.0853 38.3583 86.4913 0
M  V30 29 S  22.5197 38.3297 86.0107 0
M  V30 30 C  23.1218 39.4086 87.2572 0
M  V30 31 C  24.5340 39.2981 87.4009 0
M  V30 32 C  22.3710 40.2945 88.0420 0
M  V30 33 C  23.0440 41.0672 88.9853 0
M  V30 34 C  24.4222 40.9671 89.1465 0
M  V30 35 C  25.1754 40.0909 88.3665 0
M  V30 36 H  33.5222 36.6538 88.0620 0
M  V30 37 H  34.3743 38.1461 87.6165 0
M  V30 38 H  34.8806 36.3803 90.0092 0
M  V30 39 H  35.1837 38.1017 89.8417 0
M  V30 40 H  37.4099 37.6208 89.3567 0
M  V30 41 H  37.0646 35.9037 89.4721 0
M  V30 42 H  37.0938 37.6481 86.9958 0
M  V30 43 H  37.5003 35.9232 87.1078 0
M  V30 44 H  35.8598 35.8238 85.0242 0
M  V30 45 H  33.6837 34.7808 85.5924 0
M  V30 46 H  32.9485 36.3195 85.7619 0
M  V30 47 H  34.2334 35.3659 83.1437 0
M  V30 48 H  32.5522 35.3125 83.4118 0
M  V30 49 H  34.5658 38.5594 85.4773 0
M  V30 50 H  36.2136 38.2940 85.0767 0
M  V30 51 H  35.4873 37.3017 82.8455 0
M  V30 52 H  34.8494 38.8959 82.9790 0
M  V30 53 H  31.5827 36.1958 81.5829 0
M  V30 54 H  29.3896 35.2174 81.2700 0
M  V30 55 H  27.8455 37.6810 84.4564 0
M  V30 56 H  30.0383 38.6307 84.7909 0
M  V30 57 H  27.2571 35.1573 81.7430 0
M  V30 58 H  22.9776 34.5445 82.4436 0
M  V30 59 H  22.3446 36.0057 84.3561 0
M  V30 60 H  26.1419 38.1442 86.4416 0
M  V30 61 H  21.3020 40.3864 87.9106 0
M  V30 62 H  22.4912 41.7666 89.5944 0
M  V30 63 H  24.9160 41.5841 89.8835 0
M  V30 64 H  26.2443 40.0307 88.4982 0
M  V30 65 H  35.2760 35.3661 87.2476 0
M  V30 END ATOM
M  V30 BEGIN BOND
M  V30 1 1 1 2
M  V30 2 1 1 5
M  V30 3 1 1 36
M  V30 4 1 1 37
M  V30 5 1 2 3
M  V30 6 1 2 38
M  V30 7 1 2 39
M  V30 8 1 3 4
M  V30 9 1 3 40
M  V30 10 1 3 41
M  V30 11 1 4 5
M  V30 12 1 4 42
M  V30 13 1 4 43
M  V30 14 1 5 6
M  V30 15 1 5 65
M  V30 16 1 6 7
M  V30 17 1 6 9
M  V30 18 1 6 44
M  V30 19 1 7 8
M  V30 20 1 7 45
M  V30 21 1 7 46
M  V30 22 1 8 11
M  V30 23 1 8 47
M  V30 24 1 8 48
M  V30 25 1 9 10
M  V30 26 1 9 49
M  V30 27 1 9 50
M  V30 28 1 10 11
M  V30 29 1 10 51
M  V30 30 1 10 52
M  V30 31 1 11 12
M  V30 32 2 12 13
M  V30 33 1 12 14
M  V30 34 2 14 15
M  V30 35 1 14 19
M  V30 36 1 15 16
M  V30 37 1 15 53
M  V30 38 2 16 17
M  V30 39 1 16 54
M  V30 40 1 17 18
M  V30 41 1 17 20
M  V30 42 2 18 19
M  V30 43 1 18 55
M  V30 44 1 19 56
M  V30 45 1 20 21
M  V30 46 1 20 57
M  V30 47 2 21 22
M  V30 48 1 21 26
M  V30 49 1 22 23
M  V30 50 2 23 24
M  V30 51 1 23 58
M  V30 52 1 24 25
M  V30 53 1 24 59
M  V30 54 2 25 26
M  V30 55 1 25 27
M  V30 56 2 27 28
M  V30 57 1 27 29
M  V30 58 1 28 31
M  V30 59 1 28 60
M  V30 60 1 29 30
M  V30 61 2 30 31
M  V30 62 1 30 32
M  V30 63 1 31 35
M  V30 64 2 32 33
M  V30 65 1 32 61
M  V30 66 1 33 34
M  V30 67 1 33 62
M  V30 68 2 34 35
M  V30 69 1 34 63
M  V30 70 1 35 64
M  V30 END BOND
M  V30 END CTAB
M  END
> <s_m_entry_id>
1941

> <s_m_entry_name>
result.3994

> <s_m_Source_Path>
D:\OneDrive - zju.edu.cn\DOC\A-Finished\LCK_VS\Planet\LCK-8617

> <s_m_Source_File>
glide-dock_SP_top1262_2_pv.maegz

> <i_m_Source_File_Index>
1941

> <PLANET_affinity>
7.564

> <i_lp_mmshare_version>
54117

> <i_f3d_flags>
0

> <s_epik_input>
W0NIMl0xW0NIMl1bQ0gyXVtDSDJdTjFbQ0hdMltDSDJdW0NIMl1OKFtDSDJdW0NIMl0yKUMoPU8pYzNbY0hdW2NIXWMoW2NIXVtjSF0zKVtOSF1jNG5bY0hdW2NIXWMobjQpLWMoczUpW2NIXWMoYzU2KVtjSF1bY0hdW2NIXVtjSF02

> <s_epik_cmdline>
J2VwaWtfcHl0aG9uJywgJy1waCcsICc3LjAnLCAnLXRuJywgJzgnLCAnLW1hJywgJzUwMCcsICctaW1hZScsICc8aW5maWxlLm1hZT4nLCAnLW9tYWUnLCAnPG91dGZpbGUubWFlPic=

> <r_epik_Ionization_Penalty>
  0.0011

> <r_epik_Ionization_Penalty_Charging>
  0.0010

> <r_epik_Ionization_Penalty_Neutral>
  0.0001

> <r_epik_State_Penalty>
  0.0006

> <r_epik_Charging_Adjusted_Penalty>
0.00162889

> <i_epik_Tot_Q>
1

> <i_epik_Tot_abs_Q>
1

> <s_lp_Force_Field>
S-OPLS

> <r_lp_Energy>
59.1069

> <b_lp_Chiralities_Consistent>
1

> <s_lp_Variant>
O=C(C1=CC=C(NC2=NC=CC(C3=CC4=CC=CC=C4S3)=N2)C=C1)N5CCC(N6CCCC6)CC5-1

> <s_i_glide_gridfile>
glide-grid_1

> <i_i_glide_lignum>
1846

> <i_i_glide_rotatable_bonds>
6

> <r_i_docking_score>
-7.03641537106076

> <r_i_glide_ligand_efficiency>
-0.201040439173165

> <r_i_glide_ligand_efficiency_sa>
-0.657616606785505

> <r_i_glide_ligand_efficiency_ln>
-1.54464933877306

> <r_i_glide_gscore>
-7.03701537106076

> <r_i_glide_lipo>
-2.01328205625536

> <r_i_glide_hbond>
-0.721851915199218

> <r_i_glide_metal>
0

> <r_i_glide_rewards>
-1.25295015358151

> <r_i_glide_evdw>
-39.4958992004395

> <r_i_glide_ecoul>
-9.11838245391846

> <r_i_glide_erotb>
0.363172538514602

> <r_i_glide_esite>
-0.0695514564295286

> <r_i_glide_emodel>
-70.2289425424721

> <r_i_glide_energy>
-48.6142816543579

> <r_i_glide_einternal>
8.71192646026611

> <i_i_glide_confnum>
172

> <i_i_glide_posenum>
370

> <r_i_glide_eff_state_penalty>
0.0006

> <r_lp_tautomer_probability>
1

> <s_m_subgroup_title>
glide-dock_SP_top1262_2_pv

> <s_m_subgroupid>
glide-dock_SP_top1262_2_pv

> <b_m_subgroup_collapsed>
0

$$$$
O=C(C1=C2CCC3=CN=C(NC4=CC=C(N5CCN(C)CC5)C=C4OC)N=C3N2C=C1)NC6=C(CC)C=CC=C6CC
                    3D
 Schrodinger Suite 2021-3.
  0  0  0     0  0            999 V3000
M  V30 BEGIN CTAB
M  V30 COUNTS 82 87 0 0 0
M  V30 BEGIN ATOM
M  V30 1 C  20.7126 41.2416 86.8214 0
M  V30 2 C  20.1649 40.2912 85.7452 0
M  V30 3 C  19.7627 38.9348 86.3246 0
M  V30 4 C  18.4281 38.7563 86.6951 0
M  V30 5 C  17.9988 37.5667 87.2645 0
M  V30 6 C  18.9047 36.5355 87.4761 0
M  V30 7 C  20.2496 36.6626 87.0992 0
M  V30 8 C  21.2482 35.5294 87.3960 0
M  V30 9 C  20.6994 34.2373 88.0259 0
M  V30 10 C  20.6755 37.8733 86.4970 0
M  V30 11 N  22.0127 38.0705 86.0982 0
M  V30 12 C  22.6287 37.4106 85.0964 0
M  V30 13 O  22.0944 36.5560 84.3849 0
M  V30 14 C  24.0167 37.7602 84.9147 0
M  V30 15 C  25.0301 36.8478 84.5938 0
M  V30 16 C  26.2014 37.5594 84.4107 0
M  V30 17 N  25.9419 38.8998 84.5763 0
M  V30 18 C  24.5886 39.0461 84.8741 0
M  V30 19 C  26.8164 40.0073 84.4289 0
M  V30 20 C  26.3901 41.2662 84.8797 0
M  V30 21 C  25.0559 41.4149 85.5969 0
M  V30 22 C  23.9974 40.4549 85.0074 0
M  V30 23 C  27.2696 42.3261 84.6391 0
M  V30 24 N  28.4790 42.1597 84.0456 0
M  V30 25 C  28.8302 40.8979 83.7054 0
M  V30 26 N  28.0308 39.8053 83.8435 0
M  V30 27 N  30.1090 40.7566 83.1482 0
M  V30 28 C  30.9404 39.6240 83.0308 0
M  V30 29 C  30.7773 38.5236 83.8838 0
M  V30 30 C  31.5556 37.3830 83.7311 0
M  V30 31 C  32.5103 37.3060 82.7192 0
M  V30 32 C  32.7105 38.4189 81.8943 0
M  V30 33 C  31.9447 39.5894 82.0438 0
M  V30 34 O  32.0941 40.7035 81.2348 0
M  V30 35 C  33.0642 40.6971 80.1924 0
M  V30 36 N  33.2387 36.1379 82.5504 0
M  V30 37 C  33.4964 35.5147 81.2411 0
M  V30 38 C  33.2484 33.9917 81.2378 0
M  V30 39 N  34.1242 33.3354 82.3306 0 CHG=1
M  V30 40 C  33.9238 31.8061 82.3605 0
M  V30 41 C  33.7565 33.9512 83.6992 0
M  V30 42 C  33.9806 35.4775 83.6395 0
M  V30 43 H  21.0421 42.1869 86.3852 0
M  V30 44 H  19.9464 41.4736 87.5621 0
M  V30 45 H  21.5622 40.8070 87.3495 0
M  V30 46 H  20.8774 40.1588 84.9317 0
M  V30 47 H  19.2908 40.7547 85.2819 0
M  V30 48 H  17.7099 39.5552 86.5550 0
M  V30 49 H  16.9640 37.4547 87.5586 0
M  V30 50 H  18.5272 35.6329 87.9308 0
M  V30 51 H  21.7552 35.2303 86.4800 0
M  V30 52 H  22.0231 35.9435 88.0438 0
M  V30 53 H  21.5131 33.6395 88.4331 0
M  V30 54 H  20.0134 34.3951 88.8429 0
M  V30 55 H  20.1643 33.6367 87.2917 0
M  V30 56 H  22.5270 38.7996 86.5673 0
M  V30 57 H  24.9151 35.7762 84.4969 0
M  V30 58 H  27.1949 37.2304 84.1466 0
M  V30 59 H  25.2045 41.1908 86.6546 0
M  V30 60 H  24.7005 42.4453 85.5466 0
M  V30 61 H  23.6443 40.8209 84.0431 0
M  V30 62 H  23.1310 40.4642 85.6606 0
M  V30 63 H  27.0208 43.3339 84.9382 0
M  V30 64 H  30.5582 41.6445 82.9400 0
M  V30 65 H  30.0491 38.5428 84.6768 0
M  V30 66 H  31.3952 36.5463 84.3961 0
M  V30 67 H  33.4667 38.3492 81.1277 0
M  V30 68 H  33.0156 41.6351 79.6425 0
M  V30 69 H  34.0754 40.6017 80.5907 0
M  V30 70 H  32.8855 39.8938 79.4765 0
M  V30 71 H  32.8534 35.9718 80.4867 0
M  V30 72 H  34.5146 35.7427 80.9287 0
M  V30 73 H  33.5247 33.5346 80.2852 0
M  V30 74 H  32.2034 33.7538 81.4473 0
M  V30 75 H  32.8828 31.5959 82.6087 0
M  V30 76 H  34.1835 31.4239 81.3709 0
M  V30 77 H  34.5970 31.4089 83.1252 0
M  V30 78 H  34.4055 33.4801 84.4395 0
M  V30 79 H  32.7164 33.6935 83.9197 0
M  V30 80 H  35.0414 35.7044 83.5267 0
M  V30 81 H  33.7043 35.9177 84.5987 0
M  V30 82 H  35.0913 33.5537 82.1373 0
M  V30 END ATOM
M  V30 BEGIN BOND
M  V30 1 1 1 2
M  V30 2 1 1 43
M  V30 3 1 1 44
M  V30 4 1 1 45
M  V30 5 1 2 3
M  V30 6 1 2 46
M  V30 7 1 2 47
M  V30 8 2 3 4
M  V30 9 1 3 10
M  V30 10 1 4 5
M  V30 11 1 4 48
M  V30 12 2 5 6
M  V30 13 1 5 49
M  V30 14 1 6 7
M  V30 15 1 6 50
M  V30 16 1 7 8
M  V30 17 2 7 10
M  V30 18 1 8 9
M  V30 19 1 8 51
M  V30 20 1 8 52
M  V30 21 1 9 53
M  V30 22 1 9 54
M  V30 23 1 9 55
M  V30 24 1 10 11
M  V30 25 1 11 12
M  V30 26 1 11 56
M  V30 27 2 12 13
M  V30 28 1 12 14
M  V30 29 1 14 15
M  V30 30 2 14 18
M  V30 31 2 15 16
M  V30 32 1 15 57
M  V30 33 1 16 17
M  V30 34 1 16 58
M  V30 35 1 17 18
M  V30 36 1 17 19
M  V30 37 1 18 22
M  V30 38 2 19 20
M  V30 39 1 19 26
M  V30 40 1 20 21
M  V30 41 1 20 23
M  V30 42 1 21 22
M  V30 43 1 21 59
M  V30 44 1 21 60
M  V30 45 1 22 61
M  V30 46 1 22 62
M  V30 47 2 23 24
M  V30 48 1 23 63
M  V30 49 1 24 25
M  V30 50 2 25 26
M  V30 51 1 25 27
M  V30 52 1 27 28
M  V30 53 1 27 64
M  V30 54 2 28 29
M  V30 55 1 28 33
M  V30 56 1 29 30
M  V30 57 1 29 65
M  V30 58 2 30 31
M  V30 59 1 30 66
M  V30 60 1 31 32
M  V30 61 1 31 36
M  V30 62 2 32 33
M  V30 63 1 32 67
M  V30 64 1 33 34
M  V30 65 1 34 35
M  V30 66 1 35 68
M  V30 67 1 35 69
M  V30 68 1 35 70
M  V30 69 1 36 37
M  V30 70 1 36 42
M  V30 71 1 37 38
M  V30 72 1 37 71
M  V30 73 1 37 72
M  V30 74 1 38 39
M  V30 75 1 38 73
M  V30 76 1 38 74
M  V30 77 1 39 40
M  V30 78 1 39 41
M  V30 79 1 39 82
M  V30 80 1 40 75
M  V30 81 1 40 76
M  V30 82 1 40 77
M  V30 83 1 41 42
M  V30 84 1 41 78
M  V30 85 1 41 79
M  V30 86 1 42 80
M  V30 87 1 42 81
M  V30 END BOND
M  V30 END CTAB
M  END
> <s_m_entry_id>
1944

> <s_m_entry_name>
result.4466

> <s_m_Source_Path>
D:\OneDrive - zju.edu.cn\DOC\A-Finished\LCK_VS\Planet\LCK-8617

> <s_m_Source_File>
glide-dock_SP_top1262_2_pv.maegz

> <i_m_Source_File_Index>
1944

> <PLANET_affinity>
8.867

> <i_lp_mmshare_version>
54117

> <i_f3d_flags>
0

> <s_epik_input>
W0NIM11bQ0gyXWMxW2NIXVtjSF1bY0hdYyhbQ0gyXVtDSDNdKWMxW05IXUMoPU8pYyhbY0hdW2NIXTIpYyhuMjMpW0NIMl1bQ0gyXWM0YzNuYyhuW2NIXTQpW05IXWM1W2NIXVtjSF1jKFtjSF1jNU9bQ0gzXSlONltDSDJdW0NIMl1OKFtDSDNdKVtDSDJdW0NIMl02

> <s_epik_cmdline>
J2VwaWtfcHl0aG9uJywgJy1waCcsICc3LjAnLCAnLXRuJywgJzgnLCAnLW1hJywgJzUwMCcsICctaW1hZScsICc8aW5maWxlLm1hZT4nLCAnLW9tYWUnLCAnPG91dGZpbGUubWFlPic=

> <r_epik_Ionization_Penalty>
  0.0693

> <r_epik_Ionization_Penalty_Charging>
  0.0647

> <r_epik_Ionization_Penalty_Neutral>
  0.0045

> <r_epik_State_Penalty>
  0.3473

> <r_epik_Charging_Adjusted_Penalty>
0.412014

> <i_epik_Tot_Q>
1

> <i_epik_Tot_abs_Q>
1

> <s_lp_Force_Field>
S-OPLS

> <r_lp_Energy>
80.3328

> <b_lp_Chiralities_Consistent>
1

> <s_lp_Variant>
O=C(C1=C2CCC3=CN=C(NC4=CC=C(N5CCN(C)CC5)C=C4OC)N=C3N2C=C1)NC6=C(CC)C=CC=C6CC-1

> <s_i_glide_gridfile>
glide-grid_1

> <i_i_glide_lignum>
565

> <i_i_glide_rotatable_bonds>
9

> <r_i_docking_score>
-7.03443477252922

> <r_i_glide_ligand_efficiency>
-0.167486542203077

> <r_i_glide_ligand_efficiency_sa>
-0.582187682632451

> <r_i_glide_ligand_efficiency_ln>
-1.48478795257953

> <r_i_glide_gscore>
-7.38173477252922

> <r_i_glide_lipo>
-2.8012798229071

> <r_i_glide_hbond>
-0.140921038903494

> <r_i_glide_metal>
0

> <r_i_glide_rewards>
-0.8192193221706

> <r_i_glide_evdw>
-51.242057800293

> <r_i_glide_ecoul>
-8.27471351623535

> <r_i_glide_erotb>
0.302533429032721

> <r_i_glide_esite>
-0.119538100130788

> <r_i_glide_emodel>
-87.2274942911545

> <r_i_glide_energy>
-59.5167713165283

> <r_i_glide_einternal>
6.8393669128418

> <i_i_glide_confnum>
95

> <i_i_glide_posenum>
233

> <r_i_glide_eff_state_penalty>
0.3473

> <s_m_subgroup_title>
glide-dock_SP_top1262_2_pv

> <s_m_subgroupid>
glide-dock_SP_top1262_2_pv

> <b_m_subgroup_collapsed>
0

$$$$
O=C(C1=CN=CC2=C1C=NN2C3=CC=C(F)C=C3)NCC4=CC(S(=O)(C)=O)=NC=C4
                    3D
 Schrodinger Suite 2021-3.
  0  0  0     0  0            999 V3000
M  V30 BEGIN CTAB
M  V30 COUNTS 46 49 0 0 0
M  V30 BEGIN ATOM
M  V30 1 C  32.2698 37.0302 84.2351 0
M  V30 2 C  33.3477 36.3968 84.8578 0
M  V30 3 N  33.7978 35.1719 84.4858 0
M  V30 4 C  33.1713 34.5551 83.4511 0
M  V30 5 S  33.7738 32.9231 83.0475 0
M  V30 6 O  33.2830 32.5931 81.7084 0
M  V30 7 O  35.2139 32.8975 83.3207 0
M  V30 8 C  32.8830 31.8313 84.2974 0
M  V30 9 C  32.0927 35.1193 82.7688 0
M  V30 10 C  31.6210 36.3647 83.1881 0
M  V30 11 C  30.4814 37.0216 82.4434 0
M  V30 12 N  29.1520 36.5474 82.8433 0
M  V30 13 C  28.2746 37.2612 83.5757 0
M  V30 14 O  28.5888 38.3176 84.1238 0
M  V30 15 C  26.8490 36.7510 83.6645 0
M  V30 16 C  26.3885 35.7028 82.8444 0
M  V30 17 N  25.1226 35.2169 82.8429 0
M  V30 18 C  24.1987 35.7604 83.6723 0
M  V30 19 C  25.8761 37.3062 84.5313 0
M  V30 20 C  24.5464 36.8046 84.5354 0
M  V30 21 C  25.8504 38.3462 85.5065 0
M  V30 22 N  24.6693 38.4762 86.0455 0
M  V30 23 N  23.8498 37.5653 85.4750 0
M  V30 24 C  22.5182 37.4567 85.9451 0
M  V30 25 C  21.9309 36.1989 86.1160 0
M  V30 26 C  20.6349 36.0949 86.6158 0
M  V30 27 C  19.9102 37.2475 86.9059 0
M  V30 28 F  18.6529 37.1431 87.3894 0
M  V30 29 C  20.4700 38.5068 86.7018 0
M  V30 30 C  21.7747 38.6138 86.2235 0
M  V30 31 H  31.9416 38.0058 84.5645 0
M  V30 32 H  33.8699 36.8664 85.6788 0
M  V30 33 H  33.4197 30.8862 84.3722 0
M  V30 34 H  32.9217 32.3514 85.2460 0
M  V30 35 H  31.8472 31.6557 84.0435 0
M  V30 36 H  31.6255 34.5940 81.9457 0
M  V30 37 H  30.5793 38.1049 82.5436 0
M  V30 38 H  30.6018 36.8211 81.3779 0
M  V30 39 H  28.8981 35.6229 82.5338 0
M  V30 40 H  27.0394 35.2219 82.1277 0
M  V30 41 H  23.1996 35.3535 83.6218 0
M  V30 42 H  26.6674 38.9843 85.8116 0
M  V30 43 H  22.4823 35.2978 85.9000 0
M  V30 44 H  20.1923 35.1228 86.7812 0
M  V30 45 H  19.8931 39.3952 86.9175 0
M  V30 46 H  22.2023 39.5959 86.0757 0
M  V30 END ATOM
M  V30 BEGIN BOND
M  V30 1 2 1 2
M  V30 2 1 1 10
M  V30 3 1 1 31
M  V30 4 1 2 3
M  V30 5 1 2 32
M  V30 6 2 3 4
M  V30 7 1 4 5
M  V30 8 1 4 9
M  V30 9 2 5 6
M  V30 10 2 5 7
M  V30 11 1 5 8
M  V30 12 1 8 33
M  V30 13 1 8 34
M  V30 14 1 8 35
M  V30 15 2 9 10
M  V30 16 1 9 36
M  V30 17 1 10 11
M  V30 18 1 11 12
M  V30 19 1 11 37
M  V30 20 1 11 38
M  V30 21 1 12 13
M  V30 22 1 12 39
M  V30 23 2 13 14
M  V30 24 1 13 15
M  V30 25 2 15 16
M  V30 26 1 15 19
M  V30 27 1 16 17
M  V30 28 1 16 40
M  V30 29 2 17 18
M  V30 30 1 18 20
M  V30 31 1 18 41
M  V30 32 2 19 20
M  V30 33 1 19 21
M  V30 34 1 20 23
M  V30 35 2 21 22
M  V30 36 1 21 42
M  V30 37 1 22 23
M  V30 38 1 23 24
M  V30 39 2 24 25
M  V30 40 1 24 30
M  V30 41 1 25 26
M  V30 42 1 25 43
M  V30 43 2 26 27
M  V30 44 1 26 44
M  V30 45 1 27 28
M  V30 46 1 27 29
M  V30 47 2 29 30
M  V30 48 1 29 45
M  V30 49 1 30 46
M  V30 END BOND
M  V30 END CTAB
M  END
> <s_m_entry_id>
1947

> <s_m_entry_name>
result.7719

> <s_m_Source_Path>
D:\OneDrive - zju.edu.cn\DOC\A-Finished\LCK_VS\Planet\LCK-8617

> <s_m_Source_File>
glide-dock_SP_top1262_2_pv.maegz

> <i_m_Source_File_Index>
1947

> <PLANET_affinity>
7.337

> <i_lp_mmshare_version>
54117

> <i_f3d_flags>
0

> <s_epik_input>
Tz1TKD1PKShbQ0gzXSljMW5bY0hdW2NIXWMoW2NIXTEpW0NIMl1bTkhdQyg9TyljMltjSF1uW2NIXWMoYzIzKW4obltjSF0zKS1jNFtjSF1bY0hdYyhGKVtjSF1bY0hdNA==

> <s_epik_cmdline>
J2VwaWtfcHl0aG9uJywgJy1waCcsICc3LjAnLCAnLXRuJywgJzgnLCAnLW1hJywgJzUwMCcsICctaW1hZScsICc8aW5maWxlLm1hZT4nLCAnLW9tYWUnLCAnPG91dGZpbGUubWFlPic=

> <r_epik_Ionization_Penalty>
  0.0000

> <r_epik_Ionization_Penalty_Charging>
  0.0000

> <r_epik_Ionization_Penalty_Neutral>
  0.0000

> <r_epik_State_Penalty>
  0.0000

> <r_epik_Charging_Adjusted_Penalty>
0

> <i_epik_Tot_Q>
0

> <i_epik_Tot_abs_Q>
0

> <s_lp_Force_Field>
S-OPLS

> <r_lp_Energy>
32.5619

> <b_lp_Chiralities_Consistent>
1

> <s_lp_Variant>
O=C(C1=CN=CC2=C1C=NN2C3=CC=C(F)C=C3)NCC4=CC(S(=O)(C)=O)=NC=C4-1

> <s_i_glide_gridfile>
glide-grid_1

> <i_i_glide_lignum>
2188

> <i_i_glide_rotatable_bonds>
6

> <r_i_docking_score>
-7.03243482937356

> <r_i_glide_ligand_efficiency>
-0.234414494312452

> <r_i_glide_ligand_efficiency_sa>
-0.728380335768599

> <r_i_glide_ligand_efficiency_ln>
-1.59784581774828

> <r_i_glide_gscore>
-7.03243482937356

> <r_i_glide_lipo>
-2.76601069310872

> <r_i_glide_hbond>
-0.0292631163054445

> <r_i_glide_metal>
0

> <r_i_glide_rewards>
-2.11829627536689

> <r_i_glide_evdw>
-37.9419975280762

> <r_i_glide_ecoul>
-4.35781335830688

> <r_i_glide_erotb>
0.547999188669024

> <r_i_glide_esite>
-0.116092053111694

> <r_i_glide_emodel>
-63.0990329450806

> <r_i_glide_energy>
-42.2998108863831

> <r_i_glide_einternal>
2.2430694103241

> <i_i_glide_confnum>
45

> <i_i_glide_posenum>
172

> <r_i_glide_eff_state_penalty>
0

> <r_lp_tautomer_probability>
1

> <s_m_subgroup_title>
glide-dock_SP_top1262_2_pv

> <s_m_subgroupid>
glide-dock_SP_top1262_2_pv

> <b_m_subgroup_collapsed>
0

$$$$
O=C(C1=CN(C2CC2)C3=C(C=C(F)C(N4CCC(O)(COC5=CC=C(N6C(O[C@@H](CNC(C)=O)C6)=O)C=...
                    3D
 Schrodinger Suite 2021-3.
  0  0  0     0  0            999 V3000
M  V30 BEGIN CTAB
M  V30 COUNTS 77 82 0 0 0
M  V30 BEGIN ATOM
M  V30 1 C  21.6183 42.5379 86.2528 0
M  V30 2 C  23.0655 42.1758 86.1446 0
M  V30 3 C  22.0822 41.6465 85.1078 0
M  V30 4 N  21.7130 40.2250 85.1526 0
M  V30 5 C  20.3561 39.9244 85.2098 0
M  V30 6 C  19.8270 38.6769 85.1745 0
M  V30 7 C  18.3901 38.5093 85.2781 0
M  V30 8 O  17.5676 39.1566 84.6402 0
M  V30 9 O  18.0247 37.5618 86.1854 0
M  V30 10 C  20.7147 37.5134 85.0066 0
M  V30 11 O  20.3208 36.3567 84.8749 0
M  V30 12 C  22.1839 37.8427 84.9570 0
M  V30 13 C  22.6616 39.1723 85.0064 0
M  V30 14 C  23.1054 36.7959 84.8171 0
M  V30 15 C  24.4686 37.0424 84.7021 0
M  V30 16 F  25.3034 35.9820 84.5807 0
M  V30 17 C  24.9604 38.3562 84.7147 0
M  V30 18 C  24.0427 39.4061 84.8818 0
M  V30 19 N  26.3310 38.5820 84.5843 0
M  V30 20 C  26.9485 38.2242 83.2987 0
M  V30 21 C  28.4503 37.9029 83.4372 0
M  V30 22 C  26.9732 39.8254 85.0333 0
M  V30 23 C  28.4857 39.6392 85.3102 0
M  V30 24 C  29.3190 38.9409 84.1977 0
M  V30 25 O  29.4712 39.9806 83.2433 0
M  V30 26 C  30.6492 38.3286 84.6885 0
M  V30 27 O  31.4505 39.3021 85.3577 0
M  V30 28 C  32.4841 38.8717 86.1711 0
M  V30 29 C  32.9755 37.5565 86.1876 0
M  V30 30 C  33.9488 37.1678 87.1083 0
M  V30 31 C  34.4686 38.0847 88.0331 0
M  V30 32 C  34.0056 39.4104 87.9843 0
M  V30 33 C  33.0342 39.7988 87.0614 0
M  V30 34 F  32.5948 41.0790 87.0681 0
M  V30 35 N  35.3915 37.6417 89.0141 0
M  V30 36 C  36.2903 38.4425 89.7395 0
M  V30 37 O  36.4869 39.6565 89.7245 0
M  V30 38 O  36.9902 37.6261 90.5619 0
M  V30 39 C  36.5260 36.2944 90.5736 0 CFG=2
M  V30 40 C  35.6964 36.2471 89.3053 0
M  V30 41 C  35.7525 36.0308 91.8963 0
M  V30 42 N  34.4830 36.7572 91.9991 0
M  V30 43 C  34.1900 37.7555 92.8417 0
M  V30 44 O  34.9431 38.1412 93.7314 0
M  V30 45 C  32.8202 38.4035 92.6692 0
M  V30 46 H  21.2902 43.5522 86.0107 0
M  V30 47 H  21.0224 42.1071 87.0581 0
M  V30 48 H  23.4879 41.4948 86.8844 0
M  V30 49 H  23.7787 42.9401 85.8333 0
M  V30 50 H  22.0978 42.0770 84.1047 0
M  V30 51 H  19.7137 40.7888 85.3277 0
M  V30 52 H  22.7740 35.7661 84.7820 0
M  V30 53 H  24.4135 40.4178 84.8741 0
M  V30 54 H  26.7917 39.0303 82.5798 0
M  V30 55 H  26.4621 37.3446 82.8753 0
M  V30 56 H  28.8843 37.6809 82.4595 0
M  V30 57 H  28.5236 36.9365 83.9389 0
M  V30 58 H  26.7996 40.6276 84.3131 0
M  V30 59 H  26.5069 40.1370 85.9695 0
M  V30 60 H  28.5853 39.0781 86.2409 0
M  V30 61 H  28.9315 40.5999 85.5742 0
M  V30 62 H  30.0629 40.6389 83.6235 0
M  V30 63 H  31.2082 37.9127 83.8479 0
M  V30 64 H  30.4138 37.5047 85.3638 0
M  V30 65 H  32.5996 36.8116 85.5032 0
M  V30 66 H  34.2784 36.1379 87.0998 0
M  V30 67 H  34.3566 40.1570 88.6789 0
M  V30 68 H  37.3737 35.6125 90.4971 0
M  V30 69 H  36.2689 35.8380 88.4711 0
M  V30 70 H  34.8036 35.6329 89.4262 0
M  V30 71 H  36.4055 36.2382 92.7472 0
M  V30 72 H  35.5159 34.9679 91.9583 0
M  V30 73 H  33.7634 36.4537 91.3488 0
M  V30 74 H  32.1670 37.8069 92.0297 0
M  V30 75 H  32.9348 39.3864 92.2102 0
M  V30 76 H  32.3303 38.5343 93.6349 0
M  V30 77 H  17.0680 37.5320 86.2469 0
M  V30 END ATOM
M  V30 BEGIN BOND
M  V30 1 1 1 2
M  V30 2 1 1 3
M  V30 3 1 1 46
M  V30 4 1 1 47
M  V30 5 1 2 3
M  V30 6 1 2 48
M  V30 7 1 2 49
M  V30 8 1 3 4
M  V30 9 1 3 50
M  V30 10 1 4 5
M  V30 11 1 4 13
M  V30 12 2 5 6
M  V30 13 1 5 51
M  V30 14 1 6 7
M  V30 15 1 6 10
M  V30 16 2 7 8
M  V30 17 1 7 9
M  V30 18 1 9 77
M  V30 19 2 10 11
M  V30 20 1 10 12
M  V30 21 1 12 13
M  V30 22 2 12 14
M  V30 23 2 13 18
M  V30 24 1 14 15
M  V30 25 1 14 52
M  V30 26 1 15 16
M  V30 27 2 15 17
M  V30 28 1 17 18
M  V30 29 1 17 19
M  V30 30 1 18 53
M  V30 31 1 19 20
M  V30 32 1 19 22
M  V30 33 1 20 21
M  V30 34 1 20 54
M  V30 35 1 20 55
M  V30 36 1 21 24
M  V30 37 1 21 56
M  V30 38 1 21 57
M  V30 39 1 22 23
M  V30 40 1 22 58
M  V30 41 1 22 59
M  V30 42 1 23 24
M  V30 43 1 23 60
M  V30 44 1 23 61
M  V30 45 1 24 25
M  V30 46 1 24 26
M  V30 47 1 25 62
M  V30 48 1 26 27
M  V30 49 1 26 63
M  V30 50 1 26 64
M  V30 51 1 27 28
M  V30 52 2 28 29
M  V30 53 1 28 33
M  V30 54 1 29 30
M  V30 55 1 29 65
M  V30 56 2 30 31
M  V30 57 1 30 66
M  V30 58 1 31 32
M  V30 59 1 31 35
M  V30 60 2 32 33
M  V30 61 1 32 67
M  V30 62 1 33 34
M  V30 63 1 35 36
M  V30 64 1 35 40
M  V30 65 2 36 37
M  V30 66 1 36 38
M  V30 67 1 38 39
M  V30 68 1 39 40
M  V30 69 1 39 41
M  V30 70 1 39 68
M  V30 71 1 40 69
M  V30 72 1 40 70
M  V30 73 1 41 42
M  V30 74 1 41 71
M  V30 75 1 41 72
M  V30 76 1 42 43
M  V30 77 1 42 73
M  V30 78 2 43 44
M  V30 79 1 43 45
M  V30 80 1 45 74
M  V30 81 1 45 75
M  V30 82 1 45 76
M  V30 END BOND
M  V30 END CTAB
M  END
> <s_m_entry_id>
1957

> <s_m_entry_name>
result.2182

> <s_m_Source_Path>
D:\OneDrive - zju.edu.cn\DOC\A-Finished\LCK_VS\Planet\LCK-8617

> <s_m_Source_File>
glide-dock_SP_top1262_2_pv.maegz

> <i_m_Source_File_Index>
1957

> <PLANET_affinity>
7.84

> <i_lp_mmshare_version>
54117

> <i_f3d_flags>
0

> <s_epik_input>
Tz1DKFtPSF0pYyhjMT1PKVtjSF1uKFtDSF0yW0NIMl1bQ0gyXTIpYyhjMTMpW2NIXWMoYyhGKVtjSF0zKU4oW0NIMl1bQ0gyXTQpW0NIMl1bQ0gyXUM0KFtPSF0pW0NIMl1PYzVbY0hdW2NIXWMoW2NIXWM1RilONkMoPU8pT1tDQEhdKFtDSDJdNilbQ0gyXVtOSF1DKD1PKVtDSDNd

> <s_epik_cmdline>
J2VwaWtfcHl0aG9uJywgJy1waCcsICc3LjAnLCAnLXRuJywgJzgnLCAnLW1hJywgJzUwMCcsICctaW1hZScsICc8aW5maWxlLm1hZT4nLCAnLW9tYWUnLCAnPG91dGZpbGUubWFlPic=

> <r_epik_Ionization_Penalty>
  1.0189

> <r_epik_Ionization_Penalty_Charging>
  0.0000

> <r_epik_Ionization_Penalty_Neutral>
  1.0188

> <r_epik_State_Penalty>
  1.0695

> <r_epik_Charging_Adjusted_Penalty>
1.06957

> <i_epik_Tot_Q>
0

> <i_epik_Tot_abs_Q>
0

> <s_epik_Chemistry_Notes>
This compound has an ester and may undergo hydrolysis at high or low pH.

> <s_lp_Force_Field>
S-OPLS

> <r_lp_Energy>
45.3878

> <b_lp_Chiralities_Consistent>
1

> <s_lp_Variant>
O=C(C1=CN(C2CC2)C3=C(C=C(F)C(N4CCC(O)(COC5=CC=C(N6C(O[C@@H](CNC(C)=O)C6)=O)C=...-2

> <s_i_glide_gridfile>
glide-grid_1

> <i_i_glide_lignum>
1468

> <i_i_glide_rotatable_bonds>
12

> <r_i_docking_score>
-7.02823866149918

> <r_i_glide_ligand_efficiency>
-0.156183081366648

> <r_i_glide_ligand_efficiency_sa>
-0.555526555682757

> <r_i_glide_ligand_efficiency_ln>
-1.46218684512526

> <r_i_glide_gscore>
-8.09773866149918

> <r_i_glide_lipo>
-2.07885260409295

> <r_i_glide_hbond>
-0.944501901318213

> <r_i_glide_metal>
0

> <r_i_glide_rewards>
-0.954190174650161

> <r_i_glide_evdw>
-43.613582611084

> <r_i_glide_ecoul>
-14.3293867111206

> <r_i_glide_erotb>
0.34804727137626

> <r_i_glide_esite>
-0.138154115591821

> <r_i_glide_emodel>
-85.1864669930486

> <r_i_glide_energy>
-57.9429693222046

> <r_i_glide_einternal>
7.45611047744751

> <i_i_glide_confnum>
211

> <i_i_glide_posenum>
247

> <r_i_glide_eff_state_penalty>
1.0695

> <r_lp_tautomer_probability>
1

> <s_m_subgroup_title>
glide-dock_SP_top1262_2_pv

> <s_m_subgroupid>
glide-dock_SP_top1262_2_pv

> <b_m_subgroup_collapsed>
0

$$$$
O=C(NC1=C(N2CCCC2)C=C(N3C)C(N(C)C3=O)=C1)C4=CC=CC=C4OC
                    3D
 Schrodinger Suite 2021-3.
  0  0  0     0  0            999 V3000
M  V30 BEGIN CTAB
M  V30 COUNTS 52 55 0 0 0
M  V30 BEGIN ATOM
M  V30 1 C  17.8772 38.3893 83.4137 0
M  V30 2 O  19.0303 38.0896 84.1854 0
M  V30 3 C  18.8747 37.5586 85.4539 0
M  V30 4 C  17.6830 37.6956 86.1884 0
M  V30 5 C  17.5629 37.1557 87.4646 0
M  V30 6 C  18.6258 36.4540 88.0232 0
M  V30 7 C  19.8279 36.3390 87.3269 0
M  V30 8 C  19.9698 36.8958 86.0453 0
M  V30 9 C  21.2767 36.7567 85.3054 0
M  V30 10 O  21.2970 36.3710 84.1349 0
M  V30 11 N  22.3611 37.1119 86.0247 0
M  V30 12 C  23.6826 37.3151 85.5796 0
M  V30 13 C  24.4751 38.3479 86.1656 0
M  V30 14 C  25.8109 38.4785 85.7368 0
M  V30 15 N  24.0086 39.2386 87.1659 0
M  V30 16 C  24.8296 40.2278 87.8753 0
M  V30 17 C  23.9665 40.9060 88.9322 0
M  V30 18 C  22.6040 40.8790 88.2815 0
M  V30 19 C  22.6192 39.5491 87.5307 0
M  V30 20 C  24.2362 36.4652 84.5992 0
M  V30 21 C  25.5549 36.6573 84.1992 0
M  V30 22 C  26.3194 37.6371 84.7533 0
M  V30 23 N  26.3529 36.0133 83.2757 0
M  V30 24 C  25.9807 34.8605 82.4608 0
M  V30 25 C  27.5995 36.5552 83.2435 0
M  V30 26 O  28.5580 36.2067 82.5515 0
M  V30 27 N  27.5584 37.5608 84.1555 0
M  V30 28 C  28.7138 38.4078 84.4462 0
M  V30 29 H  18.1955 38.7563 82.4435 0
M  V30 30 H  17.2830 37.4978 83.2373 0
M  V30 31 H  17.2520 39.1564 83.8679 0
M  V30 32 H  16.8311 38.2247 85.7908 0
M  V30 33 H  16.6370 37.2683 88.0109 0
M  V30 34 H  18.5083 35.9958 88.9942 0
M  V30 35 H  20.6402 35.7898 87.7832 0
M  V30 36 H  22.1751 37.4633 86.9508 0
M  V30 37 H  26.4518 39.2404 86.1522 0
M  V30 38 H  25.6663 39.7142 88.3517 0
M  V30 39 H  25.2412 40.9617 87.1803 0
M  V30 40 H  23.9916 40.3550 89.8727 0
M  V30 41 H  24.3026 41.9212 89.1436 0
M  V30 42 H  22.4680 41.7113 87.5884 0
M  V30 43 H  21.7976 40.9326 89.0122 0
M  V30 44 H  22.0340 39.6917 86.6206 0
M  V30 45 H  22.1780 38.7693 88.1528 0
M  V30 46 H  23.6556 35.6646 84.1639 0
M  V30 47 H  26.8549 34.3572 82.0426 0
M  V30 48 H  25.4326 34.1356 83.0624 0
M  V30 49 H  25.3386 35.1861 81.6441 0
M  V30 50 H  29.6035 38.1065 83.8901 0
M  V30 51 H  28.4911 39.4438 84.1912 0
M  V30 52 H  28.9532 38.3647 85.5089 0
M  V30 END ATOM
M  V30 BEGIN BOND
M  V30 1 1 1 2
M  V30 2 1 1 29
M  V30 3 1 1 30
M  V30 4 1 1 31
M  V30 5 1 2 3
M  V30 6 2 3 4
M  V30 7 1 3 8
M  V30 8 1 4 5
M  V30 9 1 4 32
M  V30 10 2 5 6
M  V30 11 1 5 33
M  V30 12 1 6 7
M  V30 13 1 6 34
M  V30 14 2 7 8
M  V30 15 1 7 35
M  V30 16 1 8 9
M  V30 17 2 9 10
M  V30 18 1 9 11
M  V30 19 1 11 12
M  V30 20 1 11 36
M  V30 21 1 12 13
M  V30 22 2 12 20
M  V30 23 2 13 14
M  V30 24 1 13 15
M  V30 25 1 14 22
M  V30 26 1 14 37
M  V30 27 1 15 16
M  V30 28 1 15 19
M  V30 29 1 16 17
M  V30 30 1 16 38
M  V30 31 1 16 39
M  V30 32 1 17 18
M  V30 33 1 17 40
M  V30 34 1 17 41
M  V30 35 1 18 19
M  V30 36 1 18 42
M  V30 37 1 18 43
M  V30 38 1 19 44
M  V30 39 1 19 45
M  V30 40 1 20 21
M  V30 41 1 20 46
M  V30 42 2 21 22
M  V30 43 1 21 23
M  V30 44 1 22 27
M  V30 45 1 23 24
M  V30 46 1 23 25
M  V30 47 1 24 47
M  V30 48 1 24 48
M  V30 49 1 24 49
M  V30 50 2 25 26
M  V30 51 1 25 27
M  V30 52 1 27 28
M  V30 53 1 28 50
M  V30 54 1 28 51
M  V30 55 1 28 52
M  V30 END BOND
M  V30 END CTAB
M  END
> <s_m_entry_id>
1970

> <s_m_entry_name>
result.4474

> <s_m_Source_Path>
D:\OneDrive - zju.edu.cn\DOC\A-Finished\LCK_VS\Planet\LCK-8617

> <s_m_Source_File>
glide-dock_SP_top1262_2_pv.maegz

> <i_m_Source_File_Index>
1970

> <PLANET_affinity>
7.545

> <i_lp_mmshare_version>
54117

> <i_f3d_flags>
0

> <s_epik_input>
W0NIM11PYzFbY0hdW2NIXVtjSF1bY0hdYzFDKD1PKVtOSF1jKFtjSF0yKWMoTjNbQ0gyXVtDSDJdW0NIMl1bQ0gyXTMpW2NIXWMoYzI0KW4oW0NIM10pYyg9TyluNFtDSDNd

> <s_epik_cmdline>
J2VwaWtfcHl0aG9uJywgJy1waCcsICc3LjAnLCAnLXRuJywgJzgnLCAnLW1hJywgJzUwMCcsICctaW1hZScsICc8aW5maWxlLm1hZT4nLCAnLW9tYWUnLCAnPG91dGZpbGUubWFlPic=

> <r_epik_Ionization_Penalty>
  0.0012

> <r_epik_Ionization_Penalty_Charging>
  0.0000

> <r_epik_Ionization_Penalty_Neutral>
  0.0012

> <r_epik_State_Penalty>
  0.0008

> <r_epik_Charging_Adjusted_Penalty>
0.000769032

> <i_epik_Tot_Q>
0

> <i_epik_Tot_abs_Q>
0

> <s_lp_Force_Field>
S-OPLS

> <r_lp_Energy>
31.2767

> <b_lp_Chiralities_Consistent>
1

> <s_lp_Variant>
O=C(NC1=C(N2CCCC2)C=C(N3C)C(N(C)C3=O)=C1)C4=CC=CC=C4OC-1

> <s_i_glide_gridfile>
glide-grid_1

> <i_i_glide_lignum>
1872

> <i_i_glide_rotatable_bonds>
5

> <r_i_docking_score>
-7.02305841893479

> <r_i_glide_ligand_efficiency>
-0.250823514961957

> <r_i_glide_ligand_efficiency_sa>
-0.761647918574579

> <r_i_glide_ligand_efficiency_ln>
-1.62112808904554

> <r_i_glide_gscore>
-7.02385841893479

> <r_i_glide_lipo>
-3.26045068937195

> <r_i_glide_hbond>
-0.233085918235909

> <r_i_glide_metal>
0

> <r_i_glide_rewards>
-2.05492635274806

> <r_i_glide_evdw>
-44.5406646728516

> <r_i_glide_ecoul>
1.43647074699402

> <r_i_glide_erotb>
0.536167163014603

> <r_i_glide_esite>
0

> <r_i_glide_emodel>
-60.6055137050888

> <r_i_glide_energy>
-43.1041939258575

> <r_i_glide_einternal>
2.40680384635925

> <i_i_glide_confnum>
48

> <i_i_glide_posenum>
179

> <r_i_glide_eff_state_penalty>
0.0008

> <r_lp_tautomer_probability>
1

> <s_m_subgroup_title>
glide-dock_SP_top1262_2_pv

> <s_m_subgroupid>
glide-dock_SP_top1262_2_pv

> <b_m_subgroup_collapsed>
0

$$$$
O=C(OCC)C1=NC(CN2CCOCCOCCN(CC3=NC(C(OC)=O)=CC=C3)CCOCCOCC2)=CC(N)=C1
                    3D
 Schrodinger Suite 2021-3.
  0  0  0     0  0            999 V3000
M  V30 BEGIN CTAB
M  V30 COUNTS 87 89 0 0 0
M  V30 BEGIN ATOM
M  V30 1 C  14.9839 41.4970 92.2061 0
M  V30 2 C  15.3017 42.8521 92.8513 0
M  V30 3 O  16.0698 43.6884 91.9899 0
M  V30 4 C  17.4200 43.5866 91.9089 0
M  V30 5 O  18.0933 42.7570 92.5304 0
M  V30 6 C  18.0079 44.6152 90.9995 0
M  V30 7 N  19.3512 44.7514 91.0664 0 CHG=1
M  V30 8 C  20.0527 45.6638 90.3572 0
M  V30 9 C  19.3553 46.5080 89.4836 0
M  V30 10 C  17.9734 46.3711 89.3485 0
M  V30 11 N  17.2830 47.1567 88.4433 0
M  V30 12 C  17.2868 45.4331 90.1181 0
M  V30 13 C  21.5736 45.7451 90.4828 0
M  V30 14 N  22.2358 44.4266 90.5311 0
M  V30 15 C  22.3979 43.9673 91.9227 0
M  V30 16 C  22.6645 42.4509 92.0540 0
M  V30 17 O  24.0146 42.1433 91.7374 0
M  V30 18 C  24.3178 40.7566 91.7287 0
M  V30 19 C  25.7090 40.5485 91.1085 0
M  V30 20 O  25.6566 40.7938 89.7046 0
M  V30 21 C  26.9240 40.6699 89.0732 0
M  V30 22 C  26.8656 41.0671 87.5825 0
M  V30 23 N  25.8407 40.2515 86.7424 0 CHG=1
M  V30 24 C  25.9481 38.7193 86.9700 0
M  V30 25 C  25.2110 37.8384 85.9684 0
M  V30 26 N  25.9821 37.3018 84.9927 0
M  V30 27 C  25.4057 36.5114 84.0444 0
M  V30 28 C  26.2798 35.9363 82.9702 0
M  V30 29 O  25.8431 35.2363 82.0522 0
M  V30 30 O  27.5985 36.2487 83.1329 0
M  V30 31 C  28.5982 35.7847 82.2386 0
M  V30 32 C  24.0275 36.2396 84.0658 0
M  V30 33 C  23.2407 36.8032 85.0762 0
M  V30 34 C  23.8335 37.6144 86.0442 0
M  V30 35 C  25.9079 40.6561 85.2396 0
M  V30 36 C  25.4648 42.1115 85.0075 0
M  V30 37 O  24.2508 42.3320 85.7123 0
M  V30 38 C  23.6397 43.5825 85.4339 0
M  V30 39 C  22.3868 43.7471 86.3080 0
M  V30 40 O  22.6401 43.6122 87.7062 0
M  V30 41 C  23.4255 44.6495 88.2845 0
M  V30 42 C  23.5268 44.4488 89.8131 0
M  V30 43 H  14.3172 40.9140 92.8376 0
M  V30 44 H  14.4893 41.6220 91.2426 0
M  V30 45 H  15.8851 40.9082 92.0442 0
M  V30 46 H  15.8073 42.7161 93.8090 0
M  V30 47 H  14.3648 43.3707 93.0643 0
M  V30 48 H  19.8812 47.2268 88.8733 0
M  V30 49 H  16.3755 46.8251 88.1578 0
M  V30 50 H  17.8121 47.6893 87.7537 0
M  V30 51 H  16.2138 45.3345 90.0213 0
M  V30 52 H  21.8449 46.3569 91.3447 0
M  V30 53 H  21.9033 46.3236 89.6223 0
M  V30 54 H  21.5020 44.1919 92.5030 0
M  V30 55 H  23.2033 44.5241 92.4067 0
M  V30 56 H  21.9770 41.9007 91.4088 0
M  V30 57 H  22.4673 42.1355 93.0793 0
M  V30 58 H  23.5771 40.2224 91.1287 0
M  V30 59 H  24.2808 40.3570 92.7434 0
M  V30 60 H  26.0737 39.5417 91.3113 0
M  V30 61 H  26.4116 41.2358 91.5844 0
M  V30 62 H  27.2943 39.6492 89.1829 0
M  V30 63 H  27.6503 41.3213 89.5684 0
M  V30 64 H  27.8366 40.9307 87.1023 0
M  V30 65 H  26.5635 42.1110 87.4910 0
M  V30 66 H  25.5775 38.5452 87.9795 0
M  V30 67 H  27.0192 38.4981 86.9589 0
M  V30 68 H  29.5846 35.9184 82.6817 0
M  V30 69 H  28.5747 36.3566 81.3092 0
M  V30 70 H  28.4802 34.7252 82.0100 0
M  V30 71 H  23.5691 35.6065 83.3164 0
M  V30 72 H  22.1796 36.6071 85.1041 0
M  V30 73 H  23.2329 38.0636 86.8234 0
M  V30 74 H  26.9181 40.4462 84.8841 0
M  V30 75 H  25.2082 40.0123 84.7084 0
M  V30 76 H  26.2337 42.8141 85.3333 0
M  V30 77 H  25.3189 42.2751 83.9359 0
M  V30 78 H  24.3343 44.4072 85.5999 0
M  V30 79 H  23.3394 43.6211 84.3900 0
M  V30 80 H  21.9119 44.7033 86.0869 0
M  V30 81 H  21.6582 42.9859 86.0315 0
M  V30 82 H  24.4349 44.6170 87.8741 0
M  V30 83 H  23.0245 45.6293 88.0249 0
M  V30 84 H  24.0478 43.5033 89.9360 0
M  V30 85 H  24.1793 45.2098 90.2443 0
M  V30 86 H  19.8612 44.1374 91.6830 0
M  V30 87 H  24.9187 40.5309 87.0521 0
M  V30 END ATOM
M  V30 BEGIN BOND
M  V30 1 1 1 2
M  V30 2 1 1 43
M  V30 3 1 1 44
M  V30 4 1 1 45
M  V30 5 1 2 3
M  V30 6 1 2 46
M  V30 7 1 2 47
M  V30 8 1 3 4
M  V30 9 2 4 5
M  V30 10 1 4 6
M  V30 11 2 6 7
M  V30 12 1 6 12
M  V30 13 1 7 8
M  V30 14 1 7 86
M  V30 15 2 8 9
M  V30 16 1 8 13
M  V30 17 1 9 10
M  V30 18 1 9 48
M  V30 19 1 10 11
M  V30 20 2 10 12
M  V30 21 1 11 49
M  V30 22 1 11 50
M  V30 23 1 12 51
M  V30 24 1 13 14
M  V30 25 1 13 52
M  V30 26 1 13 53
M  V30 27 1 14 15
M  V30 28 1 14 42
M  V30 29 1 15 16
M  V30 30 1 15 54
M  V30 31 1 15 55
M  V30 32 1 16 17
M  V30 33 1 16 56
M  V30 34 1 16 57
M  V30 35 1 17 18
M  V30 36 1 18 19
M  V30 37 1 18 58
M  V30 38 1 18 59
M  V30 39 1 19 20
M  V30 40 1 19 60
M  V30 41 1 19 61
M  V30 42 1 20 21
M  V30 43 1 21 22
M  V30 44 1 21 62
M  V30 45 1 21 63
M  V30 46 1 22 23
M  V30 47 1 22 64
M  V30 48 1 22 65
M  V30 49 1 23 24
M  V30 50 1 23 35
M  V30 51 1 23 87
M  V30 52 1 24 25
M  V30 53 1 24 66
M  V30 54 1 24 67
M  V30 55 2 25 26
M  V30 56 1 25 34
M  V30 57 1 26 27
M  V30 58 1 27 28
M  V30 59 2 27 32
M  V30 60 2 28 29
M  V30 61 1 28 30
M  V30 62 1 30 31
M  V30 63 1 31 68
M  V30 64 1 31 69
M  V30 65 1 31 70
M  V30 66 1 32 33
M  V30 67 1 32 71
M  V30 68 2 33 34
M  V30 69 1 33 72
M  V30 70 1 34 73
M  V30 71 1 35 36
M  V30 72 1 35 74
M  V30 73 1 35 75
M  V30 74 1 36 37
M  V30 75 1 36 76
M  V30 76 1 36 77
M  V30 77 1 37 38
M  V30 78 1 38 39
M  V30 79 1 38 78
M  V30 80 1 38 79
M  V30 81 1 39 40
M  V30 82 1 39 80
M  V30 83 1 39 81
M  V30 84 1 40 41
M  V30 85 1 41 42
M  V30 86 1 41 82
M  V30 87 1 41 83
M  V30 88 1 42 84
M  V30 89 1 42 85
M  V30 END BOND
M  V30 END CTAB
M  END
> <s_m_entry_id>
1977

> <s_m_entry_name>
result.5814

> <s_m_Source_Path>
D:\OneDrive - zju.edu.cn\DOC\A-Finished\LCK_VS\Planet\LCK-8617

> <s_m_Source_File>
glide-dock_SP_top1262_2_pv.maegz

> <i_m_Source_File_Index>
1977

> <PLANET_affinity>
7.733

> <i_lp_mmshare_version>
54117

> <i_f3d_flags>
0

> <s_epik_input>
W0NIM11bQ0gyXU9DKD1PKWMxbmMoW2NIXWMoW05IMl0pW2NIXTEpW0NIMl1OMltDSDJdW0NIMl1PW0NIMl1bQ0gyXU9bQ0gyXVtDSDJdTihbQ0gyXWMzbmMoQyg9TylPW0NIM10pW2NIXVtjSF1bY0hdMylbQ0gyXVtDSDJdT1tDSDJdW0NIMl1PW0NIMl1bQ0gyXTI=

> <s_epik_cmdline>
J2VwaWtfcHl0aG9uJywgJy1waCcsICc3LjAnLCAnLXRuJywgJzgnLCAnLW1hJywgJzUwMCcsICctaW1hZScsICc8aW5maWxlLm1hZT4nLCAnLW9tYWUnLCAnPG91dGZpbGUubWFlPic=

> <r_epik_Ionization_Penalty>
  0.3320

> <r_epik_Ionization_Penalty_Charging>
  0.3316

> <r_epik_Ionization_Penalty_Neutral>
  0.0004

> <r_epik_State_Penalty>
  0.3224

> <r_epik_Charging_Adjusted_Penalty>
0.654004

> <i_epik_Tot_Q>
2

> <i_epik_Tot_abs_Q>
2

> <s_epik_Chemistry_Notes>
This compound has an ester and may undergo hydrolysis at high or low pH.

> <s_lp_Force_Field>
S-OPLS

> <r_lp_Energy>
48.8757

> <b_lp_Chiralities_Consistent>
1

> <s_lp_Variant>
O=C(OCC)C1=NC(CN2CCOCCOCCN(CC3=NC(C(OC)=O)=CC=C3)CCOCCOCC2)=CC(N)=C1-1

> <s_i_glide_gridfile>
glide-grid_1

> <i_i_glide_lignum>
1606

> <i_i_glide_rotatable_bonds>
9

> <r_i_docking_score>
-7.02091056855282

> <r_i_glide_ligand_efficiency>
-0.167164537346496

> <r_i_glide_ligand_efficiency_sa>
-0.581068385172588

> <r_i_glide_ligand_efficiency_ln>
-1.48193334154372

> <r_i_glide_gscore>
-7.34331056855282

> <r_i_glide_lipo>
-1.97430184197456

> <r_i_glide_hbond>
-0.608

> <r_i_glide_metal>
0

> <r_i_glide_rewards>
-0.986526980123169

> <r_i_glide_evdw>
-40.6523361206055

> <r_i_glide_ecoul>
-12.6200246810913

> <r_i_glide_erotb>
0.309251917447384

> <r_i_glide_esite>
-0.158113155708503

> <r_i_glide_emodel>
-76.9032818681493

> <r_i_glide_energy>
-53.2723608016968

> <r_i_glide_einternal>
8.03449058532715

> <i_i_glide_confnum>
1436

> <i_i_glide_posenum>
173

> <r_i_glide_eff_state_penalty>
0.3224

> <s_m_subgroup_title>
glide-dock_SP_top1262_2_pv

> <s_m_subgroupid>
glide-dock_SP_top1262_2_pv

> <b_m_subgroup_collapsed>
0

$$$$
CN1CCC(NC2=C3C=C(OC)C(OCCOCCN(C)C)=CC3=NC(N4CCN(C)CCC4)=N2)CC1
                    3D
 Schrodinger Suite 2021-3.
  0  0  0     0  0            999 V3000
M  V30 BEGIN CTAB
M  V30 COUNTS 86 89 0 0 0
M  V30 BEGIN ATOM
M  V30 1 C  34.7957 35.3476 80.3145 0
M  V30 2 N  33.3561 35.5107 80.8432 0 CHG=1 CFG=1
M  V30 3 C  33.1892 34.7830 82.1954 0
M  V30 4 C  31.7102 34.8770 82.5923 0
M  V30 5 C  31.1925 36.3189 82.6753 0 CFG=1
M  V30 6 C  31.5129 37.1072 81.3890 0
M  V30 7 C  32.9863 37.0057 80.9616 0
M  V30 8 N  29.7356 36.2306 82.8265 0
M  V30 9 C  28.9893 37.0644 83.6751 0
M  V30 10 N  29.6807 37.9768 84.3988 0
M  V30 11 C  29.0108 38.7920 85.2445 0
M  V30 12 N  29.7989 39.7000 86.0440 0
M  V30 13 C  29.1190 40.6342 86.9746 0
M  V30 14 C  28.8991 42.0560 86.4137 0
M  V30 15 N  30.1779 42.9170 86.2596 0 CHG=1 CFG=2
M  V30 16 C  29.8003 44.2864 85.6434 0
M  V30 17 C  31.3666 42.2652 85.5081 0
M  V30 18 C  31.9560 41.0608 86.2551 0
M  V30 19 C  31.2733 39.7368 85.8769 0
M  V30 20 N  27.6753 38.7268 85.3647 0 CHG=1
M  V30 21 C  26.9092 37.8129 84.6875 0
M  V30 22 C  27.5708 36.9217 83.7948 0
M  V30 23 C  25.5253 37.7414 84.9183 0
M  V30 24 C  24.7728 36.7421 84.2892 0
M  V30 25 C  25.4109 35.8339 83.4262 0
M  V30 26 C  26.7774 35.9327 83.1527 0
M  V30 27 O  24.7267 34.8009 82.8386 0
M  V30 28 C  23.7213 35.1966 81.9158 0
M  V30 29 O  23.4109 36.5982 84.4809 0
M  V30 30 C  22.6674 37.6607 85.0712 0
M  V30 31 C  21.1791 37.5241 84.6985 0
M  V30 32 O  20.5213 36.3551 85.1986 0
M  V30 33 C  20.4706 36.1676 86.6157 0
M  V30 34 C  19.7619 37.3106 87.3747 0
M  V30 35 N  18.4293 37.6720 86.6737 0 CHG=1
M  V30 36 C  17.2132 36.9451 87.2836 0
M  V30 37 C  18.1770 39.1941 86.6119 0
M  V30 38 H  35.4792 35.8089 81.0291 0
M  V30 39 H  34.9895 34.2778 80.2132 0
M  V30 40 H  34.8455 35.8371 79.3404 0
M  V30 41 H  33.8480 35.2601 82.9240 0
M  V30 42 H  33.4996 33.7448 82.0552 0
M  V30 43 H  31.5546 34.3684 83.5486 0
M  V30 44 H  31.1234 34.3567 81.8365 0
M  V30 45 H  31.6486 36.8187 83.5329 0
M  V30 46 H  30.8843 36.7567 80.5700 0
M  V30 47 H  31.2829 38.1604 81.5425 0
M  V30 48 H  33.6601 37.4563 81.6941 0
M  V30 49 H  33.1533 37.4682 79.9867 0
M  V30 50 H  29.2325 35.6242 82.1931 0
M  V30 51 H  28.1705 40.2059 87.2944 0
M  V30 52 H  29.7143 40.6486 87.8889 0
M  V30 53 H  28.4360 42.0343 85.4236 0
M  V30 54 H  28.2501 42.6343 87.0773 0
M  V30 55 H  29.2857 44.1145 84.6952 0
M  V30 56 H  29.1456 44.7965 86.3503 0
M  V30 57 H  30.7110 44.8658 85.4872 0
M  V30 58 H  32.1130 43.0537 85.3988 0
M  V30 59 H  31.0105 41.9574 84.5203 0
M  V30 60 H  31.9255 41.2191 87.3349 0
M  V30 61 H  33.0167 40.9825 86.0121 0
M  V30 62 H  31.6694 38.9143 86.4756 0
M  V30 63 H  31.5110 39.5209 84.8342 0
M  V30 64 H  25.0797 38.4350 85.6125 0
M  V30 65 H  27.2375 35.2145 82.4862 0
M  V30 66 H  23.4747 34.3567 81.2820 0
M  V30 67 H  22.7983 35.5096 82.4040 0
M  V30 68 H  24.0744 35.9908 81.2585 0
M  V30 69 H  23.0053 38.6292 84.6977 0
M  V30 70 H  22.8099 37.6636 86.1520 0
M  V30 71 H  21.0959 37.4822 83.6142 0
M  V30 72 H  20.6391 38.4231 84.9930 0
M  V30 73 H  21.4750 36.0106 87.0128 0
M  V30 74 H  19.9468 35.2301 86.8077 0
M  V30 75 H  20.3833 38.2072 87.3776 0
M  V30 76 H  19.5353 37.0583 88.4134 0
M  V30 77 H  17.0888 37.2900 88.3132 0
M  V30 78 H  17.4145 35.8763 87.2437 0
M  V30 79 H  16.3391 37.1976 86.6826 0
M  V30 80 H  18.0854 39.5562 87.6366 0
M  V30 81 H  19.0163 39.6687 86.1056 0
M  V30 82 H  17.2567 39.3570 86.0479 0
M  V30 83 H  32.7034 35.0872 80.1837 0
M  V30 84 H  27.2199 39.3517 86.0085 0
M  V30 85 H  30.5231 43.1089 87.1915 0
M  V30 86 H  18.5307 37.3534 85.7144 0
M  V30 END ATOM
M  V30 BEGIN BOND
M  V30 1 1 1 2
M  V30 2 1 1 38
M  V30 3 1 1 39
M  V30 4 1 1 40
M  V30 5 1 2 3
M  V30 6 1 2 7
M  V30 7 1 2 83
M  V30 8 1 3 4
M  V30 9 1 3 41
M  V30 10 1 3 42
M  V30 11 1 4 5
M  V30 12 1 4 43
M  V30 13 1 4 44
M  V30 14 1 5 6
M  V30 15 1 5 8
M  V30 16 1 5 45
M  V30 17 1 6 7
M  V30 18 1 6 46
M  V30 19 1 6 47
M  V30 20 1 7 48
M  V30 21 1 7 49
M  V30 22 1 8 9
M  V30 23 1 8 50
M  V30 24 2 9 10
M  V30 25 1 9 22
M  V30 26 1 10 11
M  V30 27 1 11 12
M  V30 28 2 11 20
M  V30 29 1 12 13
M  V30 30 1 12 19
M  V30 31 1 13 14
M  V30 32 1 13 51
M  V30 33 1 13 52
M  V30 34 1 14 15
M  V30 35 1 14 53
M  V30 36 1 14 54
M  V30 37 1 15 16
M  V30 38 1 15 17
M  V30 39 1 15 85
M  V30 40 1 16 55
M  V30 41 1 16 56
M  V30 42 1 16 57
M  V30 43 1 17 18
M  V30 44 1 17 58
M  V30 45 1 17 59
M  V30 46 1 18 19
M  V30 47 1 18 60
M  V30 48 1 18 61
M  V30 49 1 19 62
M  V30 50 1 19 63
M  V30 51 1 20 21
M  V30 52 1 20 84
M  V30 53 2 21 22
M  V30 54 1 21 23
M  V30 55 1 22 26
M  V30 56 2 23 24
M  V30 57 1 23 64
M  V30 58 1 24 25
M  V30 59 1 24 29
M  V30 60 2 25 26
M  V30 61 1 25 27
M  V30 62 1 26 65
M  V30 63 1 27 28
M  V30 64 1 28 66
M  V30 65 1 28 67
M  V30 66 1 28 68
M  V30 67 1 29 30
M  V30 68 1 30 31
M  V30 69 1 30 69
M  V30 70 1 30 70
M  V30 71 1 31 32
M  V30 72 1 31 71
M  V30 73 1 31 72
M  V30 74 1 32 33
M  V30 75 1 33 34
M  V30 76 1 33 73
M  V30 77 1 33 74
M  V30 78 1 34 35
M  V30 79 1 34 75
M  V30 80 1 34 76
M  V30 81 1 35 36
M  V30 82 1 35 37
M  V30 83 1 35 86
M  V30 84 1 36 77
M  V30 85 1 36 78
M  V30 86 1 36 79
M  V30 87 1 37 80
M  V30 88 1 37 81
M  V30 89 1 37 82
M  V30 END BOND
M  V30 END CTAB
M  END
> <s_m_entry_id>
1979

> <s_m_entry_name>
result.3300

> <s_m_Source_Path>
D:\OneDrive - zju.edu.cn\DOC\A-Finished\LCK_VS\Planet\LCK-8617

> <s_m_Source_File>
glide-dock_SP_top1262_2_pv.maegz

> <i_m_Source_File_Index>
1979

> <PLANET_affinity>
7.991

> <i_lp_mmshare_version>
54117

> <i_f3d_flags>
0

> <s_epik_input>
W0NIMl0xW0NIMl1bQ0gyXU4oW0NIM10pW0NIMl1bQ0gyXU4xYyhuMiluYyhbTkhdW0NIXShbQ0gyXVtDSDJdMylbQ0gyXVtDSDJdTjNbQ0gzXSljKGMyNClbY0hdYyhPW0NIM10pYyhbY0hdNClPW0NIMl1bQ0gyXU9bQ0gyXVtDSDJdTihbQ0gzXSlbQ0gzXQ==

> <s_epik_cmdline>
J2VwaWtfcHl0aG9uJywgJy1waCcsICc3LjAnLCAnLXRuJywgJzgnLCAnLW1hJywgJzUwMCcsICctaW1hZScsICc8aW5maWxlLm1hZT4nLCAnLW9tYWUnLCAnPG91dGZpbGUubWFlPic=

> <r_epik_Ionization_Penalty>
  0.0441

> <r_epik_Ionization_Penalty_Charging>
  0.0441

> <r_epik_Ionization_Penalty_Neutral>
  0.0000

> <r_epik_State_Penalty>
  0.0352

> <r_epik_Charging_Adjusted_Penalty>
0.0792623

> <i_epik_Tot_Q>
4

> <i_epik_Tot_abs_Q>
4

> <s_lp_Force_Field>
S-OPLS

> <r_lp_Energy>
90.8212

> <b_lp_Chiralities_Consistent>
1

> <s_lp_Variant>
CN1CCC(NC2=C3C=C(OC)C(OCCOCCN(C)C)=CC3=NC(N4CCN(C)CCC4)=N2)CC1-2

> <s_i_glide_gridfile>
glide-grid_1

> <i_i_glide_lignum>
1298

> <i_i_glide_rotatable_bonds>
11

> <r_i_docking_score>
-7.02051707972846

> <r_i_glide_ligand_efficiency>
-0.189743704857526

> <r_i_glide_ligand_efficiency_sa>
-0.632268118777486

> <r_i_glide_ligand_efficiency_ln>
-1.52258557032138

> <r_i_glide_gscore>
-7.05571707972846

> <r_i_glide_lipo>
-2.86537013000057

> <r_i_glide_hbond>
-0.453667638192436

> <r_i_glide_metal>
0

> <r_i_glide_rewards>
-0.569409143994273

> <r_i_glide_evdw>
-36.3167533874512

> <r_i_glide_ecoul>
-13.0312814712524

> <r_i_glide_erotb>
0.68460324031699

> <r_i_glide_esite>
-0.0813435177977521

> <r_i_glide_emodel>
-80.4128740056512

> <r_i_glide_energy>
-49.3480348587036

> <r_i_glide_einternal>
14.3653430938721

> <i_i_glide_confnum>
309

> <i_i_glide_posenum>
159

> <r_i_glide_eff_state_penalty>
0.0352

> <r_lp_tautomer_probability>
0.993508

> <s_m_subgroup_title>
glide-dock_SP_top1262_2_pv

> <s_m_subgroupid>
glide-dock_SP_top1262_2_pv

> <b_m_subgroup_collapsed>
0

$$$$
O=C(C1=CC=C(C2=CC=CC(N3C=NC4=C(C=CC=C4)C3=O)=C2C)C5=C1NC6=C5C=CC(C(C)(O)C)=C6)N
                    3D
 Schrodinger Suite 2021-3.
  0  0  0     0  0            999 V3000
M  V30 BEGIN CTAB
M  V30 COUNTS 64 69 0 0 0
M  V30 BEGIN ATOM
M  V30 1 C  31.6072 41.8484 89.3159 0
M  V30 2 C  30.5613 42.6004 88.4670 0
M  V30 3 O  29.8094 43.3400 89.4145 0
M  V30 4 C  31.2264 43.6602 87.5658 0
M  V30 5 C  29.7033 41.6314 87.6234 0
M  V30 6 C  30.3416 40.7563 86.7324 0
M  V30 7 C  28.3070 41.6188 87.7293 0
M  V30 8 C  27.5169 40.7825 86.9442 0
M  V30 9 C  28.1335 39.9248 86.0178 0
M  V30 10 C  29.5466 39.8910 85.9713 0
M  V30 11 N  29.8942 38.8864 85.0955 0
M  V30 12 C  28.7745 38.3288 84.5069 0
M  V30 13 C  27.6458 39.0394 85.0190 0
M  V30 14 C  28.6597 37.2932 83.5554 0
M  V30 15 C  29.8631 36.5223 83.0467 0
M  V30 16 O  30.9804 36.6897 83.5266 0
M  V30 17 N  29.6823 35.6607 82.0437 0
M  V30 18 C  27.3632 37.0476 83.0843 0
M  V30 19 C  26.2708 37.7992 83.4928 0
M  V30 20 C  26.3577 38.7824 84.4834 0
M  V30 21 C  25.1602 39.6116 84.8439 0
M  V30 22 C  25.2971 41.0022 84.7228 0
M  V30 23 C  24.2609 41.8704 85.0291 0
M  V30 24 C  23.0369 41.3607 85.4259 0
M  V30 25 C  22.8185 39.9742 85.4980 0
M  V30 26 C  23.9023 39.0838 85.2406 0
M  V30 27 C  23.6966 37.5656 85.3743 0
M  V30 28 N  21.4787 39.5358 85.7349 0
M  V30 29 C  20.5009 39.9498 84.8436 0
M  V30 30 N  19.2847 39.5485 84.8750 0
M  V30 31 C  21.2047 38.7221 86.8190 0
M  V30 32 O  21.9872 38.5186 87.7512 0
M  V30 33 C  19.8134 38.1220 86.7745 0
M  V30 34 C  18.8983 38.6259 85.8486 0
M  V30 35 C  19.4216 37.1438 87.6839 0
M  V30 36 C  18.0980 36.7116 87.7072 0
M  V30 37 C  17.1707 37.2466 86.8153 0
M  V30 38 C  17.5774 38.1876 85.8653 0
M  V30 39 H  32.2912 41.2642 88.7004 0
M  V30 40 H  31.1308 41.1567 90.0109 0
M  V30 41 H  32.2234 42.5308 89.9044 0
M  V30 42 H  30.4055 43.9518 89.8510 0
M  V30 43 H  31.8612 43.2017 86.8074 0
M  V30 44 H  30.4816 44.2610 87.0416 0
M  V30 45 H  31.8568 44.3452 88.1351 0
M  V30 46 H  31.4174 40.7302 86.6509 0
M  V30 47 H  27.8103 42.2827 88.4221 0
M  V30 48 H  26.4454 40.8131 87.0557 0
M  V30 49 H  30.8394 38.5930 84.8916 0
M  V30 50 H  28.7932 35.5578 81.5787 0
M  V30 51 H  30.4832 35.1538 81.6939 0
M  V30 52 H  27.1844 36.2898 82.3339 0
M  V30 53 H  25.3222 37.6057 83.0149 0
M  V30 54 H  26.2356 41.4257 84.3927 0
M  V30 55 H  24.4007 42.9381 84.9341 0
M  V30 56 H  22.2369 42.0599 85.6362 0
M  V30 57 H  23.7141 37.2780 86.4262 0
M  V30 58 H  22.7348 37.2664 84.9509 0
M  V30 59 H  24.4283 36.9354 84.8824 0
M  V30 60 H  20.7984 40.6509 84.0672 0
M  V30 61 H  20.1198 36.7375 88.4030 0
M  V30 62 H  17.7901 35.9607 88.4214 0
M  V30 63 H  16.1433 36.9160 86.8446 0
M  V30 64 H  16.8635 38.5892 85.1613 0
M  V30 END ATOM
M  V30 BEGIN BOND
M  V30 1 1 1 2
M  V30 2 1 1 39
M  V30 3 1 1 40
M  V30 4 1 1 41
M  V30 5 1 2 3
M  V30 6 1 2 4
M  V30 7 1 2 5
M  V30 8 1 3 42
M  V30 9 1 4 43
M  V30 10 1 4 44
M  V30 11 1 4 45
M  V30 12 2 5 6
M  V30 13 1 5 7
M  V30 14 1 6 10
M  V30 15 1 6 46
M  V30 16 2 7 8
M  V30 17 1 7 47
M  V30 18 1 8 9
M  V30 19 1 8 48
M  V30 20 2 9 10
M  V30 21 1 9 13
M  V30 22 1 10 11
M  V30 23 1 11 12
M  V30 24 1 11 49
M  V30 25 2 12 13
M  V30 26 1 12 14
M  V30 27 1 13 20
M  V30 28 1 14 15
M  V30 29 2 14 18
M  V30 30 2 15 16
M  V30 31 1 15 17
M  V30 32 1 17 50
M  V30 33 1 17 51
M  V30 34 1 18 19
M  V30 35 1 18 52
M  V30 36 2 19 20
M  V30 37 1 19 53
M  V30 38 1 20 21
M  V30 39 2 21 22
M  V30 40 1 21 26
M  V30 41 1 22 23
M  V30 42 1 22 54
M  V30 43 2 23 24
M  V30 44 1 23 55
M  V30 45 1 24 25
M  V30 46 1 24 56
M  V30 47 2 25 26
M  V30 48 1 25 28
M  V30 49 1 26 27
M  V30 50 1 27 57
M  V30 51 1 27 58
M  V30 52 1 27 59
M  V30 53 1 28 29
M  V30 54 1 28 31
M  V30 55 2 29 30
M  V30 56 1 29 60
M  V30 57 1 30 34
M  V30 58 2 31 32
M  V30 59 1 31 33
M  V30 60 2 33 34
M  V30 61 1 33 35
M  V30 62 1 34 38
M  V30 63 2 35 36
M  V30 64 1 35 61
M  V30 65 1 36 37
M  V30 66 1 36 62
M  V30 67 2 37 38
M  V30 68 1 37 63
M  V30 69 1 38 64
M  V30 END BOND
M  V30 END CTAB
M  END
> <s_m_entry_id>
1988

> <s_m_entry_name>
result.3946

> <s_m_Source_Path>
D:\OneDrive - zju.edu.cn\DOC\A-Finished\LCK_VS\Planet\LCK-8617

> <s_m_Source_File>
glide-dock_SP_top1262_2_pv.maegz

> <i_m_Source_File_Index>
1988

> <PLANET_affinity>
8.211

> <i_lp_mmshare_version>
54117

> <i_f3d_flags>
0

> <s_epik_input>
W0NIM11DKFtPSF0pKFtDSDNdKWMoW2NIXVtjSF0xKVtjSF1jKGMxMilbbkhdYzNjMmMoW2NIXVtjSF1jM0MoPU8pW05IMl0pLWM0W2NIXVtjSF1bY0hdYyhjNFtDSDNdKS1uKGM1PU8pW2NIXW5jKGM1NilbY0hdW2NIXVtjSF1bY0hdNg==

> <s_epik_cmdline>
J2VwaWtfcHl0aG9uJywgJy1waCcsICc3LjAnLCAnLXRuJywgJzgnLCAnLW1hJywgJzUwMCcsICctaW1hZScsICc8aW5maWxlLm1hZT4nLCAnLW9tYWUnLCAnPG91dGZpbGUubWFlPic=

> <r_epik_Ionization_Penalty>
  0.0000

> <r_epik_Ionization_Penalty_Charging>
  0.0000

> <r_epik_Ionization_Penalty_Neutral>
  0.0000

> <r_epik_State_Penalty>
  0.0000

> <r_epik_Charging_Adjusted_Penalty>
7.69962e-10

> <i_epik_Tot_Q>
0

> <i_epik_Tot_abs_Q>
0

> <s_lp_Force_Field>
S-OPLS

> <r_lp_Energy>
68.3645

> <b_lp_Chiralities_Consistent>
1

> <s_lp_Variant>
O=C(C1=CC=C(C2=CC=CC(N3C=NC4=C(C=CC=C4)C3=O)=C2C)C5=C1NC6=C5C=CC(C(C)(O)C)=C6)N-1

> <s_i_glide_gridfile>
glide-grid_1

> <i_i_glide_lignum>
1071

> <i_i_glide_rotatable_bonds>
5

> <r_i_docking_score>
-7.01757283112208

> <r_i_glide_ligand_efficiency>
-0.184672969240055

> <r_i_glide_ligand_efficiency_sa>
-0.620865980132787

> <r_i_glide_ligand_efficiency_ln>
-1.51319513846749

> <r_i_glide_gscore>
-7.01757283112208

> <r_i_glide_lipo>
-2.42117984651024

> <r_i_glide_hbond>
-0.330958133872317

> <r_i_glide_metal>
0

> <r_i_glide_rewards>
-1.34859999593104

> <r_i_glide_evdw>
-45.2052230834961

> <r_i_glide_ecoul>
-5.99524879455566

> <r_i_glide_erotb>
0.242713618549679

> <r_i_glide_esite>
0

> <r_i_glide_emodel>
-70.7108120973959

> <r_i_glide_energy>
-51.2004718780518

> <r_i_glide_einternal>
3.14906859397888

> <i_i_glide_confnum>
8

> <i_i_glide_posenum>
65

> <r_i_glide_eff_state_penalty>
0

> <r_lp_tautomer_probability>
1

> <s_m_subgroup_title>
glide-dock_SP_top1262_2_pv

> <s_m_subgroupid>
glide-dock_SP_top1262_2_pv

> <b_m_subgroup_collapsed>
0

$$$$
O=C(NCCC)C1=CN(N=CN=C2NC3=CC(C(NC4CC4)=O)=CC=C3C)C2=C1C.[H]Cl
                    3D
 Schrodinger Suite 2021-3.
  0  0  0     0  0            999 V3000
M  V30 BEGIN CTAB
M  V30 COUNTS 56 59 0 0 0
M  V30 BEGIN ATOM
M  V30 1 C  32.7714 34.1603 83.6742 0
M  V30 2 C  32.9656 35.6409 83.3114 0
M  V30 3 C  32.0844 36.1442 82.1456 0
M  V30 4 N  30.6415 36.0880 82.3943 0
M  V30 5 C  29.9735 36.8870 83.2492 0
M  V30 6 O  30.5385 37.7383 83.9339 0
M  V30 7 C  28.5321 36.6775 83.3056 0
M  V30 8 C  27.8589 35.5757 82.7623 0
M  V30 9 C  27.5718 37.4835 83.9681 0
M  V30 10 C  27.7527 38.7787 84.7452 0
M  V30 11 C  26.3072 36.8443 83.7692 0
M  V30 12 N  26.5196 35.6862 82.9973 0
M  V30 13 C  24.9542 37.0642 84.1139 0
M  V30 14 N  23.9782 36.2151 83.7012 0
M  V30 15 C  24.3350 35.1578 82.9431 0
M  V30 16 N  25.5871 34.8199 82.5617 0
M  V30 17 N  24.6161 38.2193 84.8431 0
M  V30 18 C  23.3897 38.8379 85.1677 0
M  V30 19 C  22.1969 38.1122 85.2804 0
M  V30 20 C  20.9761 38.7360 85.5747 0
M  V30 21 C  20.9621 40.1239 85.7717 0
M  V30 22 C  22.1433 40.8593 85.6850 0
M  V30 23 C  23.3571 40.2286 85.3913 0
M  V30 24 C  24.6154 41.0873 85.3031 0
M  V30 25 C  19.7152 37.9059 85.6460 0
M  V30 26 O  19.6557 36.8243 85.0535 0
M  V30 27 N  18.7178 38.3831 86.4178 0
M  V30 28 C  17.4257 37.7246 86.6034 0
M  V30 29 C  17.3981 36.3571 87.2438 0
M  V30 30 C  16.8890 37.5413 88.0081 0
M  V30 31 H  33.4657 33.8576 84.4600 0
M  V30 32 H  32.9462 33.5126 82.8134 0
M  V30 33 H  31.7650 33.9656 84.0423 0
M  V30 34 H  32.7996 36.2561 84.1956 0
M  V30 35 H  34.0120 35.7963 83.0444 0
M  V30 36 H  32.3771 37.1538 81.8521 0
M  V30 37 H  32.2626 35.5130 81.2739 0
M  V30 38 H  30.1238 35.4159 81.8465 0
M  V30 39 H  28.2391 34.7404 82.1919 0
M  V30 40 H  27.1748 39.5888 84.2985 0
M  V30 41 H  27.4142 38.6707 85.7773 0
M  V30 42 H  28.7785 39.1382 84.7982 0
M  V30 43 H  23.5336 34.5036 82.6234 0
M  V30 44 H  25.4187 38.7866 85.0688 0
M  V30 45 H  22.2074 37.0408 85.1478 0
M  V30 46 H  20.0448 40.6567 85.9867 0
M  V30 47 H  22.1062 41.9276 85.8409 0
M  V30 48 H  24.4145 42.1406 85.5059 0
M  V30 49 H  25.3592 40.7418 86.0213 0
M  V30 50 H  25.0564 41.0153 84.3083 0
M  V30 51 H  18.7745 39.3357 86.7437 0
M  V30 52 H  16.7119 37.9357 85.8044 0
M  V30 53 H  16.6767 35.6396 86.8447 0
M  V30 54 H  18.3353 35.8926 87.5486 0
M  V30 55 H  17.4645 37.9381 88.8434 0
M  V30 56 H  15.8168 37.5569 88.1995 0
M  V30 END ATOM
M  V30 BEGIN BOND
M  V30 1 1 1 2
M  V30 2 1 1 31
M  V30 3 1 1 32
M  V30 4 1 1 33
M  V30 5 1 2 3
M  V30 6 1 2 34
M  V30 7 1 2 35
M  V30 8 1 3 4
M  V30 9 1 3 36
M  V30 10 1 3 37
M  V30 11 1 4 5
M  V30 12 1 4 38
M  V30 13 2 5 6
M  V30 14 1 5 7
M  V30 15 2 7 8
M  V30 16 1 7 9
M  V30 17 1 8 12
M  V30 18 1 8 39
M  V30 19 1 9 10
M  V30 20 2 9 11
M  V30 21 1 10 40
M  V30 22 1 10 41
M  V30 23 1 10 42
M  V30 24 1 11 12
M  V30 25 1 11 13
M  V30 26 1 12 16
M  V30 27 2 13 14
M  V30 28 1 13 17
M  V30 29 1 14 15
M  V30 30 2 15 16
M  V30 31 1 15 43
M  V30 32 1 17 18
M  V30 33 1 17 44
M  V30 34 2 18 19
M  V30 35 1 18 23
M  V30 36 1 19 20
M  V30 37 1 19 45
M  V30 38 2 20 21
M  V30 39 1 20 25
M  V30 40 1 21 22
M  V30 41 1 21 46
M  V30 42 2 22 23
M  V30 43 1 22 47
M  V30 44 1 23 24
M  V30 45 1 24 48
M  V30 46 1 24 49
M  V30 47 1 24 50
M  V30 48 2 25 26
M  V30 49 1 25 27
M  V30 50 1 27 28
M  V30 51 1 27 51
M  V30 52 1 28 29
M  V30 53 1 28 30
M  V30 54 1 28 52
M  V30 55 1 29 30
M  V30 56 1 29 53
M  V30 57 1 29 54
M  V30 58 1 30 55
M  V30 59 1 30 56
M  V30 END BOND
M  V30 END CTAB
M  END
> <s_m_entry_id>
1991

> <s_m_entry_name>
result.4165

> <s_m_Source_Path>
D:\OneDrive - zju.edu.cn\DOC\A-Finished\LCK_VS\Planet\LCK-8617

> <s_m_Source_File>
glide-dock_SP_top1262_2_pv.maegz

> <i_m_Source_File_Index>
1991

> <PLANET_affinity>
7.378

> <i_lp_mmshare_version>
54117

> <i_f3d_flags>
0

> <s_epik_input>
W0NIM11bQ0gyXVtDSDJdW05IXUMoPU8pYyhjMVtDSDNdKVtjSF1uKGMxMiluW2NIXW5jMltOSF1jM1tjSF1jKFtjSF1bY0hdYzNbQ0gzXSlDKD1PKVtOSF1bQ0hdNFtDSDJdW0NIMl00

> <s_epik_cmdline>
J2VwaWtfcHl0aG9uJywgJy1waCcsICc3LjAnLCAnLXRuJywgJzgnLCAnLW1hJywgJzUwMCcsICctaW1hZScsICc8aW5maWxlLm1hZT4nLCAnLW9tYWUnLCAnPG91dGZpbGUubWFlPic=

> <r_epik_Ionization_Penalty>
  0.0000

> <r_epik_Ionization_Penalty_Charging>
  0.0000

> <r_epik_Ionization_Penalty_Neutral>
  0.0000

> <r_epik_State_Penalty>
  0.0000

> <r_epik_Charging_Adjusted_Penalty>
0

> <i_epik_Tot_Q>
0

> <i_epik_Tot_abs_Q>
0

> <s_lp_Force_Field>
S-OPLS

> <r_lp_Energy>
33.6261

> <b_lp_Chiralities_Consistent>
1

> <s_lp_Variant>
O=C(NCCC)C1=CN(N=CN=C2NC3=CC(C(NC4CC4)=O)=CC=C3C)C2=C1C.[H]Cl-1

> <s_i_glide_gridfile>
glide-grid_1

> <i_i_glide_lignum>
2135

> <i_i_glide_rotatable_bonds>
9

> <r_i_docking_score>
-7.01637343079109

> <r_i_glide_ligand_efficiency>
-0.233879114359703

> <r_i_glide_ligand_efficiency_sa>
-0.726716785778267

> <r_i_glide_ligand_efficiency_ln>
-1.59419649298739

> <r_i_glide_gscore>
-7.01637343079109

> <r_i_glide_lipo>
-1.73653611287118

> <r_i_glide_hbond>
-0.430273667054915

> <r_i_glide_metal>
0

> <r_i_glide_rewards>
-2.5501100945931

> <r_i_glide_evdw>
-43.5609321594238

> <r_i_glide_ecoul>
-7.14765977859497

> <r_i_glide_erotb>
0.952035123600244

> <r_i_glide_esite>
-0.00129310511170695

> <r_i_glide_emodel>
-72.0302307873688

> <r_i_glide_energy>
-50.7085919380188

> <r_i_glide_einternal>
3.11841535568237

> <i_i_glide_confnum>
123

> <i_i_glide_posenum>
260

> <r_i_glide_eff_state_penalty>
0

> <r_lp_tautomer_probability>
1

> <s_m_subgroup_title>
glide-dock_SP_top1262_2_pv

> <s_m_subgroupid>
glide-dock_SP_top1262_2_pv

> <b_m_subgroup_collapsed>
0

$$$$
O=C(C1=C(C=CC=C1)NC2=NC(NC3=C(C=C(C=C3)N4CCOCC4)OC)=NC=C2Cl)NC
                    3D
 Schrodinger Suite 2021-3.
  0  0  0     0  0            999 V3000
M  V30 BEGIN CTAB
M  V30 COUNTS 58 61 0 0 0
M  V30 BEGIN ATOM
M  V30 1 C  24.8597 40.3125 88.2188 0
M  V30 2 C  26.2188 40.0553 88.3677 0
M  V30 3 C  26.8135 39.0246 87.6508 0
M  V30 4 C  26.0470 38.2558 86.7800 0
M  V30 5 C  24.6749 38.4938 86.6146 0
M  V30 6 C  24.0614 39.5422 87.3523 0
M  V30 7 C  22.5786 39.8554 87.2431 0
M  V30 8 O  21.7476 38.9584 87.0959 0
M  V30 9 N  22.2443 41.1564 87.2896 0
M  V30 10 C  20.8817 41.6611 87.1363 0
M  V30 11 N  23.8976 37.7004 85.7454 0
M  V30 12 C  24.1624 36.8345 84.6720 0
M  V30 13 N  25.4334 36.6888 84.2120 0
M  V30 14 C  25.6289 35.9390 83.0957 0
M  V30 15 N  24.6527 35.2586 82.4441 0
M  V30 16 C  23.3920 35.3828 82.9375 0
M  V30 17 C  23.0917 36.1786 84.0442 0
M  V30 18 Cl 21.4465 36.3552 84.5632 0
M  V30 19 N  26.9149 35.7923 82.5611 0
M  V30 20 C  28.1739 36.3565 82.8449 0
M  V30 21 C  28.3960 37.6504 83.3730 0
M  V30 22 O  27.3208 38.5061 83.5293 0
M  V30 23 C  27.5172 39.8449 83.9774 0
M  V30 24 C  29.7180 38.0500 83.6430 0
M  V30 25 C  30.8129 37.2268 83.3523 0
M  V30 26 C  30.5673 35.9780 82.7816 0
M  V30 27 C  29.2694 35.5571 82.5213 0
M  V30 28 N  32.1266 37.6235 83.5914 0
M  V30 29 C  32.4901 39.0364 83.7953 0
M  V30 30 C  33.9986 39.2910 83.5694 0
M  V30 31 O  34.7714 38.4435 84.4136 0
M  V30 32 C  34.5057 37.0681 84.1652 0
M  V30 33 C  33.0092 36.7642 84.4046 0
M  V30 34 H  24.4302 41.1152 88.8017 0
M  V30 35 H  26.8126 40.6534 89.0442 0
M  V30 36 H  27.8670 38.8219 87.7639 0
M  V30 37 H  26.5420 37.4560 86.2538 0
M  V30 38 H  22.9794 41.8454 87.3355 0
M  V30 39 H  20.8995 42.7354 86.9504 0
M  V30 40 H  20.2962 41.4818 88.0402 0
M  V30 41 H  20.3736 41.1822 86.2961 0
M  V30 42 H  22.9053 37.8315 85.9034 0
M  V30 43 H  22.6114 34.8360 82.4300 0
M  V30 44 H  26.9530 35.1517 81.7828 0
M  V30 45 H  26.5495 40.3427 84.0541 0
M  V30 46 H  27.9755 39.8759 84.9661 0
M  V30 47 H  28.1289 40.4148 83.2783 0
M  V30 48 H  29.9056 39.0239 84.0676 0
M  V30 49 H  31.3858 35.3264 82.5125 0
M  V30 50 H  29.1236 34.5861 82.0702 0
M  V30 51 H  31.9364 39.6533 83.0842 0
M  V30 52 H  32.1949 39.3639 84.7962 0
M  V30 53 H  34.2370 40.3302 83.8040 0
M  V30 54 H  34.2638 39.1385 82.5225 0
M  V30 55 H  35.1195 36.4697 84.8404 0
M  V30 56 H  34.8015 36.7964 83.1486 0
M  V30 57 H  32.7625 36.8814 85.4628 0
M  V30 58 H  32.8452 35.7126 84.1671 0
M  V30 END ATOM
M  V30 BEGIN BOND
M  V30 1 2 1 2
M  V30 2 1 1 6
M  V30 3 1 1 34
M  V30 4 1 2 3
M  V30 5 1 2 35
M  V30 6 2 3 4
M  V30 7 1 3 36
M  V30 8 1 4 5
M  V30 9 1 4 37
M  V30 10 2 5 6
M  V30 11 1 5 11
M  V30 12 1 6 7
M  V30 13 2 7 8
M  V30 14 1 7 9
M  V30 15 1 9 10
M  V30 16 1 9 38
M  V30 17 1 10 39
M  V30 18 1 10 40
M  V30 19 1 10 41
M  V30 20 1 11 12
M  V30 21 1 11 42
M  V30 22 2 12 13
M  V30 23 1 12 17
M  V30 24 1 13 14
M  V30 25 2 14 15
M  V30 26 1 14 19
M  V30 27 1 15 16
M  V30 28 2 16 17
M  V30 29 1 16 43
M  V30 30 1 17 18
M  V30 31 1 19 20
M  V30 32 1 19 44
M  V30 33 2 20 21
M  V30 34 1 20 27
M  V30 35 1 21 22
M  V30 36 1 21 24
M  V30 37 1 22 23
M  V30 38 1 23 45
M  V30 39 1 23 46
M  V30 40 1 23 47
M  V30 41 2 24 25
M  V30 42 1 24 48
M  V30 43 1 25 26
M  V30 44 1 25 28
M  V30 45 2 26 27
M  V30 46 1 26 49
M  V30 47 1 27 50
M  V30 48 1 28 29
M  V30 49 1 28 33
M  V30 50 1 29 30
M  V30 51 1 29 51
M  V30 52 1 29 52
M  V30 53 1 30 31
M  V30 54 1 30 53
M  V30 55 1 30 54
M  V30 56 1 31 32
M  V30 57 1 32 33
M  V30 58 1 32 55
M  V30 59 1 32 56
M  V30 60 1 33 57
M  V30 61 1 33 58
M  V30 END BOND
M  V30 END CTAB
M  END
> <s_m_entry_id>
1992

> <s_m_entry_name>
result.851

> <s_m_Source_Path>
D:\OneDrive - zju.edu.cn\DOC\A-Finished\LCK_VS\Planet\LCK-8617

> <s_m_Source_File>
glide-dock_SP_top1262_2_pv.maegz

> <i_m_Source_File_Index>
1992

> <PLANET_affinity>
7.755

> <i_lp_mmshare_version>
54117

> <i_f3d_flags>
0

> <s_epik_input>
W0NIM11bTkhdQyg9TyljMVtjSF1bY0hdW2NIXVtjSF1jMVtOSF1jMm5jKG5bY0hdYzJDbClbTkhdYzNjKE9bQ0gzXSlbY0hdYyhbY0hdW2NIXTMpTjRbQ0gyXVtDSDJdT1tDSDJdW0NIMl00

> <s_epik_cmdline>
J2VwaWtfcHl0aG9uJywgJy1waCcsICc3LjAnLCAnLXRuJywgJzgnLCAnLW1hJywgJzUwMCcsICctaW1hZScsICc8aW5maWxlLm1hZT4nLCAnLW9tYWUnLCAnPG91dGZpbGUubWFlPic=

> <r_epik_Ionization_Penalty>
  0.0004

> <r_epik_Ionization_Penalty_Charging>
  0.0000

> <r_epik_Ionization_Penalty_Neutral>
  0.0004

> <r_epik_State_Penalty>
  0.0000

> <r_epik_Charging_Adjusted_Penalty>
0

> <i_epik_Tot_Q>
0

> <i_epik_Tot_abs_Q>
0

> <s_lp_Force_Field>
S-OPLS

> <r_lp_Energy>
59.4958

> <b_lp_Chiralities_Consistent>
1

> <s_lp_Variant>
O=C(C1=C(C=CC=C1)NC2=NC(NC3=C(C=C(C=C3)N4CCOCC4)OC)=NC=C2Cl)NC-1

> <s_i_glide_gridfile>
glide-grid_1

> <i_i_glide_lignum>
1561

> <i_i_glide_rotatable_bonds>
8

> <r_i_docking_score>
-7.01628984969358

> <r_i_glide_ligand_efficiency>
-0.212614843930108

> <r_i_glide_ligand_efficiency_sa>
-0.68196941017769

> <r_i_glide_ligand_efficiency_ln>
-1.56038653416726

> <r_i_glide_gscore>
-7.01628984969358

> <r_i_glide_lipo>
-2.3728898180458

> <r_i_glide_hbond>
-0.415842334136398

> <r_i_glide_metal>
0

> <r_i_glide_rewards>
-1.61403885275354

> <r_i_glide_evdw>
-42.3242340087891

> <r_i_glide_ecoul>
-5.78674221038818

> <r_i_glide_erotb>
0.385690455696889

> <r_i_glide_esite>
-0.0149862684570369

> <r_i_glide_emodel>
-67.3648542095425

> <r_i_glide_energy>
-48.1109762191772

> <r_i_glide_einternal>
5.19782733917236

> <i_i_glide_confnum>
12

> <i_i_glide_posenum>
14

> <r_i_glide_eff_state_penalty>
0

> <r_lp_tautomer_probability>
1

> <s_m_subgroup_title>
glide-dock_SP_top1262_2_pv

> <s_m_subgroupid>
glide-dock_SP_top1262_2_pv

> <b_m_subgroup_collapsed>
0

$$$$
O=C(C1=NNC(C2=CC(Cl)=C(O)C=C2O)=C1C3=CC=C(OC)C=C3)NCC
                    3D
 Schrodinger Suite 2021-3.
  0  0  0     0  0            999 V3000
M  V30 BEGIN CTAB
M  V30 COUNTS 45 47 0 0 0
M  V30 BEGIN ATOM
M  V30 1 C  26.3420 40.5595 89.3983 0
M  V30 2 O  25.2554 40.7728 88.5040 0
M  V30 3 C  24.9619 39.8087 87.5598 0
M  V30 4 C  25.6817 38.6153 87.4023 0
M  V30 5 C  25.2921 37.6858 86.4431 0
M  V30 6 C  23.8722 40.0614 86.7258 0
M  V30 7 C  23.4938 39.1384 85.7540 0
M  V30 8 C  24.1991 37.9406 85.6160 0
M  V30 9 C  23.8137 36.9399 84.5728 0
M  V30 10 C  24.6492 36.3564 83.5807 0
M  V30 11 N  23.9580 35.5562 82.7920 0
M  V30 12 N  22.7131 35.5732 83.2567 0
M  V30 13 C  22.5534 36.3570 84.3699 0
M  V30 14 C  21.2857 36.5457 85.0229 0
M  V30 15 O  20.2208 36.3566 84.4336 0
M  V30 16 N  21.3779 36.8426 86.3281 0
M  V30 17 C  20.2459 36.9351 87.2430 0
M  V30 18 C  19.8748 35.5658 87.8284 0
M  V30 19 C  26.1259 36.5738 83.3504 0
M  V30 20 C  26.7009 37.8103 83.6777 0
M  V30 21 C  28.0809 38.0036 83.6424 0
M  V30 22 Cl 28.7240 39.5415 84.1028 0
M  V30 23 C  28.9132 36.9613 83.2249 0
M  V30 24 O  30.2733 37.1113 83.1748 0
M  V30 25 C  28.3540 35.7560 82.8101 0
M  V30 26 C  26.9725 35.5655 82.8549 0
M  V30 27 O  26.4828 34.3572 82.4436 0
M  V30 28 H  26.4259 41.4115 90.0725 0
M  V30 29 H  27.2890 40.4670 88.8639 0
M  V30 30 H  26.1871 39.6695 90.0099 0
M  V30 31 H  26.5333 38.3846 88.0233 0
M  V30 32 H  25.8387 36.7612 86.3394 0
M  V30 33 H  23.3188 40.9830 86.8325 0
M  V30 34 H  22.6522 39.3549 85.1112 0
M  V30 35 H  21.9825 35.0140 82.8340 0
M  V30 36 H  22.2908 37.0689 86.6963 0
M  V30 37 H  20.5251 37.6180 88.0436 0
M  V30 38 H  19.3785 37.3859 86.7537 0
M  V30 39 H  18.9768 35.6306 88.4433 0
M  V30 40 H  19.6874 34.8437 87.0395 0
M  V30 41 H  20.6731 35.1536 88.4432 0
M  V30 42 H  26.0807 38.6353 83.9940 0
M  V30 43 H  30.7188 36.3362 82.8250 0
M  V30 44 H  28.9947 34.9622 82.4526 0
M  V30 45 H  27.1896 33.7665 82.1681 0
M  V30 END ATOM
M  V30 BEGIN BOND
M  V30 1 1 1 2
M  V30 2 1 1 28
M  V30 3 1 1 29
M  V30 4 1 1 30
M  V30 5 1 2 3
M  V30 6 2 3 4
M  V30 7 1 3 6
M  V30 8 1 4 5
M  V30 9 1 4 31
M  V30 10 2 5 8
M  V30 11 1 5 32
M  V30 12 2 6 7
M  V30 13 1 6 33
M  V30 14 1 7 8
M  V30 15 1 7 34
M  V30 16 1 8 9
M  V30 17 1 9 10
M  V30 18 2 9 13
M  V30 19 2 10 11
M  V30 20 1 10 19
M  V30 21 1 11 12
M  V30 22 1 12 13
M  V30 23 1 12 35
M  V30 24 1 13 14
M  V30 25 2 14 15
M  V30 26 1 14 16
M  V30 27 1 16 17
M  V30 28 1 16 36
M  V30 29 1 17 18
M  V30 30 1 17 37
M  V30 31 1 17 38
M  V30 32 1 18 39
M  V30 33 1 18 40
M  V30 34 1 18 41
M  V30 35 2 19 20
M  V30 36 1 19 26
M  V30 37 1 20 21
M  V30 38 1 20 42
M  V30 39 1 21 22
M  V30 40 2 21 23
M  V30 41 1 23 24
M  V30 42 1 23 25
M  V30 43 1 24 43
M  V30 44 2 25 26
M  V30 45 1 25 44
M  V30 46 1 26 27
M  V30 47 1 27 45
M  V30 END BOND
M  V30 END CTAB
M  END
> <s_m_entry_id>
1993

> <s_m_entry_name>
result.892

> <s_m_Source_Path>
D:\OneDrive - zju.edu.cn\DOC\A-Finished\LCK_VS\Planet\LCK-8617

> <s_m_Source_File>
glide-dock_SP_top1262_2_pv.maegz

> <i_m_Source_File_Index>
1993

> <PLANET_affinity>
7.702

> <i_lp_mmshare_version>
54117

> <i_f3d_flags>
0

> <s_epik_input>
W0NIM11PYzFbY0hdW2NIXWMoW2NIXVtjSF0xKS1jMmMobltuSF1jMkMoPU8pW05IXVtDSDJdW0NIM10pLWMzW2NIXWMoQ2wpYyhbT0hdKVtjSF1jM1tPSF0=

> <s_epik_cmdline>
J2VwaWtfcHl0aG9uJywgJy1waCcsICc3LjAnLCAnLXRuJywgJzgnLCAnLW1hJywgJzUwMCcsICctaW1hZScsICc8aW5maWxlLm1hZT4nLCAnLW9tYWUnLCAnPG91dGZpbGUubWFlPic=

> <r_epik_Ionization_Penalty>
  0.0890

> <r_epik_Ionization_Penalty_Charging>
  0.0000

> <r_epik_Ionization_Penalty_Neutral>
  0.0890

> <r_epik_State_Penalty>
  0.4732

> <r_epik_Charging_Adjusted_Penalty>
0.473219

> <i_epik_Tot_Q>
0

> <i_epik_Tot_abs_Q>
0

> <s_lp_Force_Field>
S-OPLS

> <r_lp_Energy>
28.8362

> <b_lp_Chiralities_Consistent>
1

> <s_lp_Variant>
O=C(C1=NNC(C2=CC(Cl)=C(O)C=C2O)=C1C3=CC=C(OC)C=C3)NCC-1

> <s_i_glide_gridfile>
glide-grid_1

> <i_i_glide_lignum>
1650

> <i_i_glide_rotatable_bonds>
8

> <r_i_docking_score>
-7.0151789856409

> <r_i_glide_ligand_efficiency>
-0.259821443912626

> <r_i_glide_ligand_efficiency_sa>
-0.779464330881548

> <r_i_glide_ligand_efficiency_ln>
-1.63301801359275

> <r_i_glide_gscore>
-7.4883789856409

> <r_i_glide_lipo>
-2.90089978558847

> <r_i_glide_hbond>
-0.663207984657866

> <r_i_glide_metal>
0

> <r_i_glide_rewards>
-1.51389706044366

> <r_i_glide_evdw>
-33.981502532959

> <r_i_glide_ecoul>
-8.19543266296387

> <r_i_glide_erotb>
0.518015871141627

> <r_i_glide_esite>
0

> <r_i_glide_emodel>
-61.1166199368765

> <r_i_glide_energy>
-42.1769351959229

> <r_i_glide_einternal>
3.53253030776978

> <i_i_glide_confnum>
8

> <i_i_glide_posenum>
136

> <r_i_glide_eff_state_penalty>
0.4732

> <r_lp_tautomer_probability>
0.5

> <s_m_subgroup_title>
glide-dock_SP_top1262_2_pv

> <s_m_subgroupid>
glide-dock_SP_top1262_2_pv

> <b_m_subgroup_collapsed>
0

$$$$
C[C@](CCC1)(C2=NC3=CC=C(Cl)C(C)=C3N2)N1C(C4=C(N5N=CC=N5)C=CC(OC)=C4)=O
                    3D
 Schrodinger Suite 2021-3.
  0  0  0     0  0            999 V3000
M  V30 BEGIN CTAB
M  V30 COUNTS 55 59 0 0 0
M  V30 BEGIN ATOM
M  V30 1 C  21.5611 36.5247 86.6770 0
M  V30 2 C  20.1861 36.5587 86.8815 0
M  V30 3 C  19.5039 37.7578 87.0978 0
M  V30 4 Cl 17.7906 37.6373 87.3096 0
M  V30 5 C  20.1693 39.0041 87.1408 0
M  V30 6 C  19.3921 40.2910 87.3892 0
M  V30 7 C  21.5581 38.9518 86.9252 0
M  V30 8 C  22.2510 37.7394 86.6931 0
M  V30 9 N  22.5660 39.8984 86.9002 0
M  V30 10 C  23.7634 39.2412 86.6885 0
M  V30 11 N  23.5874 37.9550 86.5294 0
M  V30 12 C  25.1611 39.8958 86.7709 0 CFG=1
M  V30 13 C  25.1403 41.3484 86.2216 0
M  V30 14 C  25.6066 39.8953 88.2530 0
M  V30 15 C  27.0924 39.6112 88.2470 0
M  V30 16 C  27.2829 38.6671 87.0722 0
M  V30 17 N  26.2569 39.1057 86.1166 0
M  V30 18 C  26.2549 38.7743 84.7916 0
M  V30 19 O  25.3499 39.1323 84.0450 0
M  V30 20 C  27.3507 37.9065 84.1940 0
M  V30 21 C  27.0668 36.7168 83.4692 0
M  V30 22 N  25.7583 36.1790 83.3309 0
M  V30 23 N  24.9080 36.0404 84.3625 0
M  V30 24 C  23.8344 35.5569 83.7902 0
M  V30 25 C  24.0817 35.3330 82.4432 0
M  V30 26 N  25.2951 35.7279 82.1524 0
M  V30 27 C  28.1121 36.0200 82.8434 0
M  V30 28 C  29.4243 36.4677 82.9413 0
M  V30 29 C  29.7216 37.6423 83.6442 0
M  V30 30 C  28.6809 38.3503 84.2452 0
M  V30 31 O  30.9888 38.1745 83.7731 0
M  V30 32 C  32.0875 37.5031 83.1655 0
M  V30 33 H  22.0794 35.5899 86.5218 0
M  V30 34 H  19.6357 35.6289 86.8720 0
M  V30 35 H  18.5175 40.1377 88.0232 0
M  V30 36 H  20.0190 41.0343 87.8813 0
M  V30 37 H  19.0584 40.7163 86.4434 0
M  V30 38 H  24.4926 41.9956 86.8131 0
M  V30 39 H  26.1357 41.7940 86.2311 0
M  V30 40 H  24.7746 41.3892 85.1950 0
M  V30 41 H  25.1151 39.0974 88.8122 0
M  V30 42 H  25.3676 40.8230 88.7749 0
M  V30 43 H  27.4516 39.1800 89.1809 0
M  V30 44 H  27.6508 40.5335 88.0763 0
M  V30 45 H  27.0714 37.6388 87.3688 0
M  V30 46 H  28.3038 38.7563 86.7073 0
M  V30 47 H  22.9213 35.3479 84.3267 0
M  V30 48 H  23.3972 34.9192 81.7148 0
M  V30 49 H  27.9181 35.1152 82.2832 0
M  V30 50 H  30.1958 35.8928 82.4514 0
M  V30 51 H  28.9271 39.2805 84.7374 0
M  V30 52 H  33.0040 38.0584 83.3659 0
M  V30 53 H  31.9697 37.4418 82.0822 0
M  V30 54 H  32.2158 36.4977 83.5699 0
M  V30 55 H  22.4977 40.8953 87.0410 0
M  V30 END ATOM
M  V30 BEGIN BOND
M  V30 1 2 1 2
M  V30 2 1 1 8
M  V30 3 1 1 33
M  V30 4 1 2 3
M  V30 5 1 2 34
M  V30 6 1 3 4
M  V30 7 2 3 5
M  V30 8 1 5 6
M  V30 9 1 5 7
M  V30 10 1 6 35
M  V30 11 1 6 36
M  V30 12 1 6 37
M  V30 13 2 7 8
M  V30 14 1 7 9
M  V30 15 1 8 11
M  V30 16 1 9 10
M  V30 17 1 9 55
M  V30 18 2 10 11
M  V30 19 1 10 12
M  V30 20 1 12 13
M  V30 21 1 12 14
M  V30 22 1 12 17
M  V30 23 1 13 38
M  V30 24 1 13 39
M  V30 25 1 13 40
M  V30 26 1 14 15
M  V30 27 1 14 41
M  V30 28 1 14 42
M  V30 29 1 15 16
M  V30 30 1 15 43
M  V30 31 1 15 44
M  V30 32 1 16 17
M  V30 33 1 16 45
M  V30 34 1 16 46
M  V30 35 1 17 18
M  V30 36 2 18 19
M  V30 37 1 18 20
M  V30 38 1 20 21
M  V30 39 2 20 30
M  V30 40 1 21 22
M  V30 41 2 21 27
M  V30 42 1 22 23
M  V30 43 1 22 26
M  V30 44 2 23 24
M  V30 45 1 24 25
M  V30 46 1 24 47
M  V30 47 2 25 26
M  V30 48 1 25 48
M  V30 49 1 27 28
M  V30 50 1 27 49
M  V30 51 2 28 29
M  V30 52 1 28 50
M  V30 53 1 29 30
M  V30 54 1 29 31
M  V30 55 1 30 51
M  V30 56 1 31 32
M  V30 57 1 32 52
M  V30 58 1 32 53
M  V30 59 1 32 54
M  V30 END BOND
M  V30 END CTAB
M  END
> <s_m_entry_id>
1995

> <s_m_entry_name>
result.601

> <s_m_Source_Path>
D:\OneDrive - zju.edu.cn\DOC\A-Finished\LCK_VS\Planet\LCK-8617

> <s_m_Source_File>
glide-dock_SP_top1262_2_pv.maegz

> <i_m_Source_File_Index>
1995

> <PLANET_affinity>
8.369

> <i_lp_mmshare_version>
54117

> <i_f3d_flags>
0

> <s_epik_input>
W0NIM11jMWMoQ2wpW2NIXVtjSF1jKGMxMilbbkhdYyhuMilbQ0BAXTMoW0NIM10pW0NIMl1bQ0gyXVtDSDJdTjNDKD1PKWM0YygtbjVuW2NIXVtjSF1uNSlbY0hdW2NIXWMoW2NIXTQpT1tDSDNd

> <s_epik_cmdline>
J2VwaWtfcHl0aG9uJywgJy1waCcsICc3LjAnLCAnLXRuJywgJzgnLCAnLW1hJywgJzUwMCcsICctaW1hZScsICc8aW5maWxlLm1hZT4nLCAnLW9tYWUnLCAnPG91dGZpbGUubWFlPic=

> <r_epik_Ionization_Penalty>
  0.0756

> <r_epik_Ionization_Penalty_Charging>
  0.0000

> <r_epik_Ionization_Penalty_Neutral>
  0.0756

> <r_epik_State_Penalty>
  0.5043

> <r_epik_Charging_Adjusted_Penalty>
0.504297

> <i_epik_Tot_Q>
0

> <i_epik_Tot_abs_Q>
0

> <s_lp_Force_Field>
S-OPLS

> <r_lp_Energy>
48.7927

> <b_lp_Chiralities_Consistent>
1

> <s_lp_Variant>
C[C@](CCC1)(C2=NC3=CC=C(Cl)C(C)=C3N2)N1C(C4=C(N5N=CC=N5)C=CC(OC)=C4)=O-2

> <s_i_glide_gridfile>
glide-grid_1

> <i_i_glide_lignum>
894

> <i_i_glide_rotatable_bonds>
5

> <r_i_docking_score>
-7.01512802184672

> <r_i_glide_ligand_efficiency>
-0.21922275068271

> <r_i_glide_ligand_efficiency_sa>
-0.695988849294154

> <r_i_glide_ligand_efficiency_ln>
-1.57087838925913

> <r_i_glide_gscore>
-7.51942802184672

> <r_i_glide_lipo>
-3.2301808286522

> <r_i_glide_hbond>
-0.142045051068883

> <r_i_glide_metal>
0

> <r_i_glide_rewards>
-1.84135152998388

> <r_i_glide_evdw>
-43.2508316040039

> <r_i_glide_ecoul>
-3.58533477783203

> <r_i_glide_erotb>
0.394491184733239

> <r_i_glide_esite>
0

> <r_i_glide_emodel>
-66.1924028966402

> <r_i_glide_energy>
-46.8361663818359

> <r_i_glide_einternal>
5.95348739624023

> <i_i_glide_confnum>
79

> <i_i_glide_posenum>
288

> <r_i_glide_eff_state_penalty>
0.5043

> <s_m_subgroup_title>
glide-dock_SP_top1262_2_pv

> <s_m_subgroupid>
glide-dock_SP_top1262_2_pv

> <b_m_subgroup_collapsed>
0

$$$$
O=C(NC1=CC(C(F)(F)F)=C(CN(CC2)CCN2CC)C=C1)C3=CC(OC4=C5C(NC=C5)=NC=C4)=C(C)C=C3
                    3D
 Schrodinger Suite 2021-3.
  0  0  0     0  0            999 V3000
M  V30 BEGIN CTAB
M  V30 COUNTS 70 74 0 0 0
M  V30 BEGIN ATOM
M  V30 1 C  18.9652 36.8761 87.6438 0
M  V30 2 C  17.6965 37.3812 87.8680 0
M  V30 3 N  17.2246 37.9566 86.7123 0
M  V30 4 C  18.1528 37.8146 85.7076 0
M  V30 5 C  19.2867 37.1621 86.2728 0
M  V30 6 N  18.0224 38.2179 84.4404 0
M  V30 7 C  19.0941 37.9570 83.6477 0
M  V30 8 C  20.2779 37.3656 84.0859 0
M  V30 9 C  20.3926 36.9738 85.4237 0
M  V30 10 O  21.5355 36.4212 85.9533 0
M  V30 11 C  22.7096 37.1226 85.7890 0
M  V30 12 C  22.9447 38.3278 86.4745 0
M  V30 13 C  21.9387 38.8790 87.4740 0
M  V30 14 C  24.1323 39.0265 86.2538 0
M  V30 15 C  25.0948 38.5221 85.3808 0
M  V30 16 C  23.6886 36.6132 84.9292 0
M  V30 17 C  24.9005 37.2930 84.7221 0
M  V30 18 C  25.9644 36.7090 83.8147 0
M  V30 19 O  25.6714 35.8661 82.9621 0
M  V30 20 N  27.2122 37.1709 84.0580 0
M  V30 21 C  28.4470 36.8303 83.4837 0
M  V30 22 C  29.5534 37.5601 83.9310 0
M  V30 23 C  30.8448 37.3061 83.4476 0
M  V30 24 C  32.0133 38.1712 83.9414 0
M  V30 25 F  32.9631 37.4050 84.4798 0
M  V30 26 F  32.5286 38.8451 82.9122 0
M  V30 27 F  31.6370 39.0611 84.8624 0
M  V30 28 C  31.0210 36.2687 82.5056 0
M  V30 29 C  29.9077 35.5564 82.0449 0
M  V30 30 C  28.6309 35.8289 82.5227 0
M  V30 31 C  32.3837 35.8955 81.9258 0
M  V30 32 N  32.8730 34.4890 82.3651 0 CHG=1
M  V30 33 C  33.3385 33.6452 81.1527 0
M  V30 34 C  33.8048 32.2635 81.6500 0
M  V30 35 N  34.9469 32.4081 82.5620 0 CFG=1
M  V30 36 C  34.5103 33.1448 83.7583 0
M  V30 37 C  34.0161 34.5654 83.4093 0
M  V30 38 C  35.4839 31.0871 82.9165 0
M  V30 39 C  36.8507 31.1830 83.6180 0
M  V30 40 H  19.5819 36.3781 88.3760 0
M  V30 41 H  17.0851 37.4050 88.7625 0
M  V30 42 H  16.3302 38.4242 86.6555 0
M  V30 43 H  18.9869 38.2569 82.6156 0
M  V30 44 H  21.1018 37.2177 83.4042 0
M  V30 45 H  22.3893 39.6154 88.1429 0
M  V30 46 H  21.0925 39.3343 86.9556 0
M  V30 47 H  21.5614 38.0689 88.0995 0
M  V30 48 H  24.3171 39.9631 86.7591 0
M  V30 49 H  25.9927 39.1083 85.2400 0
M  V30 50 H  23.4943 35.6745 84.4239 0
M  V30 51 H  27.2662 37.8585 84.7935 0
M  V30 52 H  29.4005 38.3461 84.6572 0
M  V30 53 H  30.0203 34.7762 81.2999 0
M  V30 54 H  27.8107 35.2435 82.1384 0
M  V30 55 H  32.3101 35.8928 80.8427 0
M  V30 56 H  33.1803 36.6019 82.1592 0
M  V30 57 H  32.4859 33.5558 80.4808 0
M  V30 58 H  34.1374 34.1966 80.6515 0
M  V30 59 H  32.9863 31.7333 82.1364 0
M  V30 60 H  34.0870 31.6627 80.7860 0
M  V30 61 H  35.3474 33.2511 84.4413 0
M  V30 62 H  33.7459 32.5909 84.3056 0
M  V30 63 H  34.8108 35.1836 82.9956 0
M  V30 64 H  33.5958 35.0556 84.2886 0
M  V30 65 H  34.7810 30.5367 83.5463 0
M  V30 66 H  35.6213 30.4984 82.0074 0
M  V30 67 H  37.2759 30.1891 83.7649 0
M  V30 68 H  37.5626 31.7618 83.0265 0
M  V30 69 H  36.7783 31.6454 84.6038 0
M  V30 70 H  32.0951 34.0042 82.7964 0
M  V30 END ATOM
M  V30 BEGIN BOND
M  V30 1 2 1 2
M  V30 2 1 1 5
M  V30 3 1 1 40
M  V30 4 1 2 3
M  V30 5 1 2 41
M  V30 6 1 3 4
M  V30 7 1 3 42
M  V30 8 2 4 5
M  V30 9 1 4 6
M  V30 10 1 5 9
M  V30 11 2 6 7
M  V30 12 1 7 8
M  V30 13 1 7 43
M  V30 14 2 8 9
M  V30 15 1 8 44
M  V30 16 1 9 10
M  V30 17 1 10 11
M  V30 18 2 11 12
M  V30 19 1 11 16
M  V30 20 1 12 13
M  V30 21 1 12 14
M  V30 22 1 13 45
M  V30 23 1 13 46
M  V30 24 1 13 47
M  V30 25 2 14 15
M  V30 26 1 14 48
M  V30 27 1 15 17
M  V30 28 1 15 49
M  V30 29 2 16 17
M  V30 30 1 16 50
M  V30 31 1 17 18
M  V30 32 2 18 19
M  V30 33 1 18 20
M  V30 34 1 20 21
M  V30 35 1 20 51
M  V30 36 2 21 22
M  V30 37 1 21 30
M  V30 38 1 22 23
M  V30 39 1 22 52
M  V30 40 1 23 24
M  V30 41 2 23 28
M  V30 42 1 24 25
M  V30 43 1 24 26
M  V30 44 1 24 27
M  V30 45 1 28 29
M  V30 46 1 28 31
M  V30 47 2 29 30
M  V30 48 1 29 53
M  V30 49 1 30 54
M  V30 50 1 31 32
M  V30 51 1 31 55
M  V30 52 1 31 56
M  V30 53 1 32 33
M  V30 54 1 32 37
M  V30 55 1 32 70
M  V30 56 1 33 34
M  V30 57 1 33 57
M  V30 58 1 33 58
M  V30 59 1 34 35
M  V30 60 1 34 59
M  V30 61 1 34 60
M  V30 62 1 35 36
M  V30 63 1 35 38
M  V30 64 1 36 37
M  V30 65 1 36 61
M  V30 66 1 36 62
M  V30 67 1 37 63
M  V30 68 1 37 64
M  V30 69 1 38 39
M  V30 70 1 38 65
M  V30 71 1 38 66
M  V30 72 1 39 67
M  V30 73 1 39 68
M  V30 74 1 39 69
M  V30 END BOND
M  V30 END CTAB
M  END
> <s_m_entry_id>
1997

> <s_m_entry_name>
result.1701

> <s_m_Source_Path>
D:\OneDrive - zju.edu.cn\DOC\A-Finished\LCK_VS\Planet\LCK-8617

> <s_m_Source_File>
glide-dock_SP_top1262_2_pv.maegz

> <i_m_Source_File_Index>
1997

> <PLANET_affinity>
8.213

> <i_lp_mmshare_version>
54117

> <i_f3d_flags>
0

> <s_epik_input>
W25IXTFbY0hdW2NIXWMoYzEyKWMoW2NIXVtjSF1uMilPYzNjKFtDSDNdKVtjSF1bY0hdYyhbY0hdMylDKD1PKVtOSF1jNFtjSF1jKEMoRikoRilGKWMoW2NIXVtjSF00KVtDSDJdTjVbQ0gyXVtDSDJdTihbQ0gyXVtDSDJdNSlbQ0gyXVtDSDNd

> <s_epik_cmdline>
J2VwaWtfcHl0aG9uJywgJy1waCcsICc3LjAnLCAnLXRuJywgJzgnLCAnLW1hJywgJzUwMCcsICctaW1hZScsICc8aW5maWxlLm1hZT4nLCAnLW9tYWUnLCAnPG91dGZpbGUubWFlPic=

> <r_epik_Ionization_Penalty>
  0.0863

> <r_epik_Ionization_Penalty_Charging>
  0.0136

> <r_epik_Ionization_Penalty_Neutral>
  0.0727

> <r_epik_State_Penalty>
  0.1750

> <r_epik_Charging_Adjusted_Penalty>
0.188596

> <i_epik_Tot_Q>
1

> <i_epik_Tot_abs_Q>
1

> <s_lp_Force_Field>
S-OPLS

> <r_lp_Energy>
77.8694

> <b_lp_Chiralities_Consistent>
1

> <s_lp_Variant>
O=C(NC1=CC(C(F)(F)F)=C(CN(CC2)CCN2CC)C=C1)C3=CC(OC4=C5C(NC=C5)=NC=C4)=C(C)C=C3-1

> <s_i_glide_gridfile>
glide-grid_1

> <i_i_glide_lignum>
1059

> <i_i_glide_rotatable_bonds>
9

> <r_i_docking_score>
-7.0144094489882

> <r_i_glide_ligand_efficiency>
-0.179856652538159

> <r_i_glide_ligand_efficiency_sa>
-0.609931937444786

> <r_i_glide_ligand_efficiency_ln>
-1.50408850171618

> <r_i_glide_gscore>
-7.1894094489882

> <r_i_glide_lipo>
-3.07937205830917

> <r_i_glide_hbond>
0

> <r_i_glide_metal>
0

> <r_i_glide_rewards>
-0.993669917914457

> <r_i_glide_evdw>
-49.3344535827637

> <r_i_glide_ecoul>
-7.65527486801147

> <r_i_glide_erotb>
0.498646436575337

> <r_i_glide_esite>
0

> <r_i_glide_emodel>
-83.7130480908355

> <r_i_glide_energy>
-56.9897284507751

> <r_i_glide_einternal>
7.4646167755127

> <i_i_glide_confnum>
119

> <i_i_glide_posenum>
290

> <r_i_glide_eff_state_penalty>
0.175

> <r_lp_tautomer_probability>
1

> <s_m_subgroup_title>
glide-dock_SP_top1262_2_pv

> <s_m_subgroupid>
glide-dock_SP_top1262_2_pv

> <b_m_subgroup_collapsed>
0

$$$$
CCCCNC1=NC(N[C@H]2CC[C@H](O)CC2)=C(C(NCC3=CC=C(N4C=NC=C4)C=C3)=O)C=N1
                    3D
 Schrodinger Suite 2021-3.
  0  0  0     0  0            999 V3000
M  V30 BEGIN CTAB
M  V30 COUNTS 67 70 0 0 0
M  V30 BEGIN ATOM
M  V30 1 C  18.7310 36.0681 88.1034 0
M  V30 2 C  17.5157 36.8092 87.5141 0
M  V30 3 C  17.8594 38.0166 86.6091 0
M  V30 4 C  18.9152 37.7382 85.5204 0
M  V30 5 N  20.2780 37.7406 86.0480 0
M  V30 6 C  21.3657 37.2094 85.3465 0
M  V30 7 N  22.5771 37.5018 85.8662 0
M  V30 8 C  23.6772 37.0187 85.2257 0
M  V30 9 N  24.9357 37.3041 85.7977 0
M  V30 10 C  25.1449 38.3601 86.7877 0 CFG=1
M  V30 11 C  26.4985 38.0994 87.4873 0
M  V30 12 C  26.8794 39.2365 88.4547 0
M  V30 13 C  26.8286 40.6306 87.7974 0 CFG=2
M  V30 14 O  27.0368 41.6282 88.7747 0
M  V30 15 C  25.5052 40.8794 87.0384 0
M  V30 16 C  25.1576 39.7301 86.0705 0
M  V30 17 C  23.5590 36.2481 84.0436 0
M  V30 18 C  22.2523 35.9551 83.6290 0
M  V30 19 N  21.1507 36.4351 84.2528 0
M  V30 20 C  24.7106 35.7627 83.1926 0
M  V30 21 O  24.6040 34.7567 82.4921 0
M  V30 22 N  25.8012 36.5390 83.1758 0
M  V30 23 C  27.0121 36.2588 82.4079 0
M  V30 24 C  28.3086 36.7387 83.0595 0
M  V30 25 C  29.4982 36.0639 82.7678 0
M  V30 26 C  30.6944 36.4746 83.3491 0
M  V30 27 C  30.7067 37.5562 84.2385 0
M  V30 28 C  29.5193 38.2331 84.5305 0
M  V30 29 C  28.3250 37.8246 83.9410 0
M  V30 30 N  31.9105 37.9563 84.8555 0
M  V30 31 C  32.9770 37.1699 85.2387 0
M  V30 32 N  33.9547 37.8292 85.8177 0
M  V30 33 C  33.5440 39.0824 85.8269 0
M  V30 34 C  32.2923 39.2183 85.2450 0
M  V30 35 H  18.4489 35.3112 88.8340 0
M  V30 36 H  19.4111 36.7576 88.5961 0
M  V30 37 H  19.2950 35.5575 87.3256 0
M  V30 38 H  16.9040 36.1050 86.9496 0
M  V30 39 H  16.8835 37.1598 88.3312 0
M  V30 40 H  16.9420 38.3636 86.1315 0
M  V30 41 H  18.1837 38.8552 87.2285 0
M  V30 42 H  18.7041 36.7799 85.0444 0
M  V30 43 H  18.8384 38.4662 84.7117 0
M  V30 44 H  20.4979 38.3845 86.7912 0
M  V30 45 H  25.7416 37.0098 85.2657 0
M  V30 46 H  24.3275 38.3582 87.5143 0
M  V30 47 H  26.4820 37.1575 88.0388 0
M  V30 48 H  27.2844 37.9911 86.7409 0
M  V30 49 H  26.2107 39.2158 89.3155 0
M  V30 50 H  27.8810 39.0562 88.8430 0
M  V30 51 H  27.6684 40.7102 87.1036 0
M  V30 52 H  26.7779 42.4770 88.4062 0
M  V30 53 H  24.6904 41.0042 87.7541 0
M  V30 54 H  25.5637 41.8169 86.4821 0
M  V30 55 H  25.8756 39.7271 85.2474 0
M  V30 56 H  24.1836 39.9285 85.6195 0
M  V30 57 H  22.0638 35.3495 82.7521 0
M  V30 58 H  25.7005 37.4825 83.5191 0
M  V30 59 H  27.0969 35.1917 82.1803 0
M  V30 60 H  26.8847 36.7562 81.4475 0
M  V30 61 H  29.4997 35.2245 82.0844 0
M  V30 62 H  31.6027 35.9408 83.1091 0
M  V30 63 H  29.5078 39.0606 85.2234 0
M  V30 64 H  27.4223 38.3613 84.1754 0
M  V30 65 H  32.9558 36.1048 85.0706 0
M  V30 66 H  34.1437 39.8757 86.2479 0
M  V30 67 H  31.6628 40.0779 85.0723 0
M  V30 END ATOM
M  V30 BEGIN BOND
M  V30 1 1 1 2
M  V30 2 1 1 35
M  V30 3 1 1 36
M  V30 4 1 1 37
M  V30 5 1 2 3
M  V30 6 1 2 38
M  V30 7 1 2 39
M  V30 8 1 3 4
M  V30 9 1 3 40
M  V30 10 1 3 41
M  V30 11 1 4 5
M  V30 12 1 4 42
M  V30 13 1 4 43
M  V30 14 1 5 6
M  V30 15 1 5 44
M  V30 16 2 6 7
M  V30 17 1 6 19
M  V30 18 1 7 8
M  V30 19 1 8 9
M  V30 20 2 8 17
M  V30 21 1 9 10
M  V30 22 1 9 45
M  V30 23 1 10 11
M  V30 24 1 10 16
M  V30 25 1 10 46
M  V30 26 1 11 12
M  V30 27 1 11 47
M  V30 28 1 11 48
M  V30 29 1 12 13
M  V30 30 1 12 49
M  V30 31 1 12 50
M  V30 32 1 13 14
M  V30 33 1 13 15
M  V30 34 1 13 51
M  V30 35 1 14 52
M  V30 36 1 15 16
M  V30 37 1 15 53
M  V30 38 1 15 54
M  V30 39 1 16 55
M  V30 40 1 16 56
M  V30 41 1 17 18
M  V30 42 1 17 20
M  V30 43 2 18 19
M  V30 44 1 18 57
M  V30 45 2 20 21
M  V30 46 1 20 22
M  V30 47 1 22 23
M  V30 48 1 22 58
M  V30 49 1 23 24
M  V30 50 1 23 59
M  V30 51 1 23 60
M  V30 52 2 24 25
M  V30 53 1 24 29
M  V30 54 1 25 26
M  V30 55 1 25 61
M  V30 56 2 26 27
M  V30 57 1 26 62
M  V30 58 1 27 28
M  V30 59 1 27 30
M  V30 60 2 28 29
M  V30 61 1 28 63
M  V30 62 1 29 64
M  V30 63 1 30 31
M  V30 64 1 30 34
M  V30 65 2 31 32
M  V30 66 1 31 65
M  V30 67 1 32 33
M  V30 68 2 33 34
M  V30 69 1 33 66
M  V30 70 1 34 67
M  V30 END BOND
M  V30 END CTAB
M  END
> <s_m_entry_id>
2011

> <s_m_entry_name>
result.4256

> <s_m_Source_Path>
D:\OneDrive - zju.edu.cn\DOC\A-Finished\LCK_VS\Planet\LCK-8617

> <s_m_Source_File>
glide-dock_SP_top1262_2_pv.maegz

> <i_m_Source_File_Index>
2011

> <PLANET_affinity>
7.576

> <i_lp_mmshare_version>
54117

> <i_f3d_flags>
0

> <s_epik_input>
W0NIM11bQ0gyXVtDSDJdW0NIMl1bTkhdYzFuYyhbTkhdW0NASF0yW0NIMl1bQ0gyXVtDQEhdKFtPSF0pW0NIMl1bQ0gyXTIpYyhbY0hdbjEpQyg9TylbTkhdW0NIMl1jM1tjSF1bY0hdYyhbY0hdW2NIXTMpLW40W2NIXW5bY0hdW2NIXTQ=

> <s_epik_cmdline>
J2VwaWtfcHl0aG9uJywgJy1waCcsICc3LjAnLCAnLXRuJywgJzgnLCAnLW1hJywgJzUwMCcsICctaW1hZScsICc8aW5maWxlLm1hZT4nLCAnLW9tYWUnLCAnPG91dGZpbGUubWFlPic=

> <r_epik_Ionization_Penalty>
  0.0757

> <r_epik_Ionization_Penalty_Charging>
  0.0496

> <r_epik_Ionization_Penalty_Neutral>
  0.0260

> <r_epik_State_Penalty>
  0.0591

> <r_epik_Charging_Adjusted_Penalty>
0.10878

> <i_epik_Tot_Q>
0

> <i_epik_Tot_abs_Q>
0

> <s_lp_Force_Field>
S-OPLS

> <r_lp_Energy>
40.7004

> <b_lp_Chiralities_Consistent>
1

> <s_lp_Variant>
CCCCNC1=NC(N[C@H]2CC[C@H](O)CC2)=C(C(NCC3=CC=C(N4C=NC=C4)C=C3)=O)C=N1-1

> <s_i_glide_gridfile>
glide-grid_1

> <i_i_glide_lignum>
1821

> <i_i_glide_rotatable_bonds>
12

> <r_i_docking_score>
-7.00828233949637

> <r_i_glide_ligand_efficiency>
-0.206125951161658

> <r_i_glide_ligand_efficiency_sa>
-0.667768063147923

> <r_i_glide_ligand_efficiency_ln>
-1.54832614445591

> <r_i_glide_gscore>
-7.06738233949637

> <r_i_glide_lipo>
-3.2259654101233

> <r_i_glide_hbond>
-0.5765682973964

> <r_i_glide_metal>
0

> <r_i_glide_rewards>
-1.0535202566688

> <r_i_glide_evdw>
-46.1685981750488

> <r_i_glide_ecoul>
-5.6044225692749

> <r_i_glide_erotb>
0.937764918835799

> <r_i_glide_esite>
0

> <r_i_glide_emodel>
-69.9360760522167

> <r_i_glide_energy>
-51.7730207443237

> <r_i_glide_einternal>
8.252760887146

> <i_i_glide_confnum>
86

> <i_i_glide_posenum>
316

> <r_i_glide_eff_state_penalty>
0.0591

> <r_lp_tautomer_probability>
1

> <s_m_subgroup_title>
glide-dock_SP_top1262_2_pv

> <s_m_subgroupid>
glide-dock_SP_top1262_2_pv

> <b_m_subgroup_collapsed>
0

$$$$
BrC1=CC(NC2=NC=NC3=CC(OC)=C(OC)C=C32)=CC(Br)=C1O
                    3D
 Schrodinger Suite 2021-3.
  0  0  0     0  0            999 V3000
M  V30 BEGIN CTAB
M  V30 COUNTS 37 39 0 0 0
M  V30 BEGIN ATOM
M  V30 1 O  17.6792 39.1569 85.8153 0
M  V30 2 C  19.0022 38.8419 85.6371 0
M  V30 3 C  19.9818 39.3207 86.5088 0
M  V30 4 Br 19.5539 40.5925 87.8544 0
M  V30 5 C  21.3081 38.9125 86.3621 0
M  V30 6 C  21.6873 38.0489 85.3307 0
M  V30 7 C  20.7079 37.6390 84.4113 0
M  V30 8 C  19.3771 38.0417 84.5568 0
M  V30 9 Br 18.0833 37.5571 83.2437 0
M  V30 10 N  23.0536 37.7089 85.2489 0
M  V30 11 C  23.7908 36.8321 84.4302 0
M  V30 12 N  23.1035 35.9141 83.7046 0
M  V30 13 C  23.8156 35.1564 82.8424 0
M  V30 14 N  25.1459 35.2200 82.6130 0
M  V30 15 C  25.2109 36.9700 84.3109 0
M  V30 16 C  25.8415 36.1317 83.3437 0
M  V30 17 C  26.0165 37.8828 85.0445 0
M  V30 18 C  27.4014 37.9627 84.8200 0
M  V30 19 O  28.2347 38.8102 85.5313 0
M  V30 20 C  27.7047 39.6077 86.5843 0
M  V30 21 C  28.0043 37.1563 83.8447 0
M  V30 22 C  27.2253 36.2504 83.1106 0
M  V30 23 O  29.3734 37.2864 83.6650 0
M  V30 24 C  30.0474 36.4506 82.7234 0
M  V30 25 H  17.4823 39.7224 86.5774 0
M  V30 26 H  22.0485 39.2881 87.0535 0
M  V30 27 H  20.9628 37.0344 83.5573 0
M  V30 28 H  23.6439 38.3127 85.7984 0
M  V30 29 H  23.2818 34.4081 82.2800 0
M  V30 30 H  25.5400 38.5124 85.7808 0
M  V30 31 H  28.5131 40.1801 87.0390 0
M  V30 32 H  27.2567 38.9931 87.3661 0
M  V30 33 H  26.9635 40.3185 86.2145 0
M  V30 34 H  27.6630 35.6144 82.3558 0
M  V30 35 H  31.1122 36.6830 82.7306 0
M  V30 36 H  29.9439 35.3938 82.9770 0
M  V30 37 H  29.6843 36.6114 81.7074 0
M  V30 END ATOM
M  V30 BEGIN BOND
M  V30 1 1 1 2
M  V30 2 1 1 25
M  V30 3 2 2 3
M  V30 4 1 2 8
M  V30 5 1 3 4
M  V30 6 1 3 5
M  V30 7 2 5 6
M  V30 8 1 5 26
M  V30 9 1 6 7
M  V30 10 1 6 10
M  V30 11 2 7 8
M  V30 12 1 7 27
M  V30 13 1 8 9
M  V30 14 1 10 11
M  V30 15 1 10 28
M  V30 16 2 11 12
M  V30 17 1 11 15
M  V30 18 1 12 13
M  V30 19 2 13 14
M  V30 20 1 13 29
M  V30 21 1 14 16
M  V30 22 2 15 16
M  V30 23 1 15 17
M  V30 24 1 16 22
M  V30 25 2 17 18
M  V30 26 1 17 30
M  V30 27 1 18 19
M  V30 28 1 18 21
M  V30 29 1 19 20
M  V30 30 1 20 31
M  V30 31 1 20 32
M  V30 32 1 20 33
M  V30 33 2 21 22
M  V30 34 1 21 23
M  V30 35 1 22 34
M  V30 36 1 23 24
M  V30 37 1 24 35
M  V30 38 1 24 36
M  V30 39 1 24 37
M  V30 END BOND
M  V30 END CTAB
M  END
> <s_m_entry_id>
2015

> <s_m_entry_name>
result.77

> <s_m_Source_Path>
D:\OneDrive - zju.edu.cn\DOC\A-Finished\LCK_VS\Planet\LCK-8617

> <s_m_Source_File>
glide-dock_SP_top1262_2_pv.maegz

> <i_m_Source_File_Index>
2015

> <PLANET_affinity>
7.498

> <i_lp_mmshare_version>
54117

> <i_f3d_flags>
0

> <s_epik_input>
W09IXWMxYyhCcilbY0hdYyhbY0hdYzFCcilbTkhdYzJuW2NIXW5jKGMyMylbY0hdYyhPW0NIM10pYyhbY0hdMylPW0NIM10=

> <s_epik_cmdline>
J2VwaWtfcHl0aG9uJywgJy1waCcsICc3LjAnLCAnLXRuJywgJzgnLCAnLW1hJywgJzUwMCcsICctaW1hZScsICc8aW5maWxlLm1hZT4nLCAnLW9tYWUnLCAnPG91dGZpbGUubWFlPic=

> <r_epik_Ionization_Penalty>
  0.0717

> <r_epik_Ionization_Penalty_Charging>
  0.0000

> <r_epik_Ionization_Penalty_Neutral>
  0.0717

> <r_epik_State_Penalty>
  0.0615

> <r_epik_Charging_Adjusted_Penalty>
0.0614501

> <i_epik_Tot_Q>
0

> <i_epik_Tot_abs_Q>
0

> <s_lp_Force_Field>
S-OPLS

> <r_lp_Energy>
36.3186

> <b_lp_Chiralities_Consistent>
1

> <s_lp_Variant>
BrC1=CC(NC2=NC=NC3=CC(OC)=C(OC)C=C32)=CC(Br)=C1O-1

> <s_i_glide_gridfile>
glide-grid_1

> <i_i_glide_lignum>
1943

> <i_i_glide_rotatable_bonds>
5

> <r_i_docking_score>
-7.00537896187214

> <r_i_glide_ligand_efficiency>
-0.291890790078006

> <r_i_glide_ligand_efficiency_sa>
-0.841958732241458

> <r_i_glide_ligand_efficiency_ln>
-1.67670864147022

> <r_i_glide_gscore>
-7.06687896187214

> <r_i_glide_lipo>
-2.80584021746967

> <r_i_glide_hbond>
-0.326628236777315

> <r_i_glide_metal>
0

> <r_i_glide_rewards>
-1.31685505730134

> <r_i_glide_evdw>
-38.610595703125

> <r_i_glide_ecoul>
-5.87325143814087

> <r_i_glide_erotb>
0.193962050553566

> <r_i_glide_esite>
0

> <r_i_glide_emodel>
-62.5869816919074

> <r_i_glide_energy>
-44.4838471412659

> <r_i_glide_einternal>
3.90908455848694

> <i_i_glide_confnum>
1

> <i_i_glide_posenum>
316

> <r_i_glide_eff_state_penalty>
0.0615

> <r_lp_tautomer_probability>
0.999978

> <s_m_subgroup_title>
glide-dock_SP_top1262_2_pv

> <s_m_subgroupid>
glide-dock_SP_top1262_2_pv

> <b_m_subgroup_collapsed>
0

$$$$
O=C(NC/1=O)SC1=C/C2=CC(C3=NC(N4CCN(C(C)=O)CC4)=CC=C3[N+]([O-])=O)=CC=C2F
                    3D
 Schrodinger Suite 2021-3.
  0  0  0     0  0            999 V3000
M  V30 BEGIN CTAB
M  V30 COUNTS 50 53 0 0 0
M  V30 BEGIN ATOM
M  V30 1 O  18.6472 36.3648 87.9623 0
M  V30 2 C  18.8675 37.2288 87.1172 0
M  V30 3 N  18.1181 37.6927 86.1284 0 CHG=-1
M  V30 4 C  18.5953 38.6581 85.3867 0
M  V30 5 O  17.9641 39.1404 84.4448 0
M  V30 6 C  19.9282 39.0922 85.7659 0
M  V30 7 S  20.4628 38.0710 87.0984 0
M  V30 8 C  20.5558 40.1080 85.1123 0
M  V30 9 C  21.9127 40.6960 85.2932 0
M  V30 10 C  22.7297 40.4128 86.3946 0
M  V30 11 C  24.0171 40.9462 86.5143 0
M  V30 12 C  24.4994 41.7923 85.5153 0
M  V30 13 C  23.7030 42.1002 84.4199 0
M  V30 14 C  22.4219 41.5666 84.3143 0
M  V30 15 F  21.6816 41.9159 83.2435 0
M  V30 16 C  24.8335 40.6280 87.7048 0
M  V30 17 N  24.3346 41.1564 88.8508 0
M  V30 18 C  24.9447 40.9061 90.0383 0
M  V30 19 C  26.0807 40.0917 90.0940 0
M  V30 20 C  26.6009 39.5567 88.9153 0
M  V30 21 C  25.9772 39.8119 87.6922 0
M  V30 22 N  26.4931 39.1721 86.4692 0 CHG=1
M  V30 23 O  26.7626 39.8765 85.5028 0 CHG=-1
M  V30 24 O  26.6564 37.9567 86.4985 0
M  V30 25 N  24.3708 41.4619 91.1842 0
M  V30 26 C  23.3207 42.4984 91.1424 0
M  V30 27 C  23.6232 43.7089 92.0473 0
M  V30 28 N  23.8511 43.2492 93.4313 0
M  V30 29 C  23.6829 44.1029 94.4705 0
M  V30 30 O  23.6830 43.7303 95.6434 0
M  V30 31 C  23.6022 45.6110 94.2110 0
M  V30 32 C  24.0638 41.8111 93.6992 0
M  V30 33 C  24.9091 41.2309 92.5399 0
M  V30 34 H  19.9974 40.5903 84.3230 0
M  V30 35 H  22.3837 39.7840 87.1949 0
M  V30 36 H  25.4881 42.2222 85.5909 0
M  V30 37 H  24.0751 42.7568 83.6478 0
M  V30 38 H  26.5426 39.8593 91.0391 0
M  V30 39 H  27.4728 38.9183 88.9555 0
M  V30 40 H  23.1298 42.8598 90.1316 0
M  V30 41 H  22.3991 42.0132 91.4676 0
M  V30 42 H  22.7639 44.3793 91.9927 0
M  V30 43 H  24.5017 44.2334 91.6688 0
M  V30 44 H  22.5997 45.8853 93.8832 0
M  V30 45 H  24.3204 45.9257 93.4542 0
M  V30 46 H  23.8198 46.1662 95.1237 0
M  V30 47 H  24.6273 41.6390 94.6185 0
M  V30 48 H  23.1145 41.2751 93.7303 0
M  V30 49 H  25.8752 41.7377 92.5767 0
M  V30 50 H  25.0464 40.1635 92.7175 0
M  V30 END ATOM
M  V30 BEGIN BOND
M  V30 1 2 1 2
M  V30 2 1 2 3
M  V30 3 1 2 7
M  V30 4 1 3 4
M  V30 5 2 4 5
M  V30 6 1 4 6
M  V30 7 1 6 7
M  V30 8 2 6 8
M  V30 9 1 8 9
M  V30 10 1 8 34
M  V30 11 2 9 10
M  V30 12 1 9 14
M  V30 13 1 10 11
M  V30 14 1 10 35
M  V30 15 2 11 12
M  V30 16 1 11 16
M  V30 17 1 12 13
M  V30 18 1 12 36
M  V30 19 2 13 14
M  V30 20 1 13 37
M  V30 21 1 14 15
M  V30 22 2 16 17
M  V30 23 1 16 21
M  V30 24 1 17 18
M  V30 25 2 18 19
M  V30 26 1 18 25
M  V30 27 1 19 20
M  V30 28 1 19 38
M  V30 29 2 20 21
M  V30 30 1 20 39
M  V30 31 1 21 22
M  V30 32 1 22 23
M  V30 33 2 22 24
M  V30 34 1 25 26
M  V30 35 1 25 33
M  V30 36 1 26 27
M  V30 37 1 26 40
M  V30 38 1 26 41
M  V30 39 1 27 28
M  V30 40 1 27 42
M  V30 41 1 27 43
M  V30 42 1 28 29
M  V30 43 1 28 32
M  V30 44 2 29 30
M  V30 45 1 29 31
M  V30 46 1 31 44
M  V30 47 1 31 45
M  V30 48 1 31 46
M  V30 49 1 32 33
M  V30 50 1 32 47
M  V30 51 1 32 48
M  V30 52 1 33 49
M  V30 53 1 33 50
M  V30 END BOND
M  V30 END CTAB
M  END
> <s_m_entry_id>
2018

> <s_m_entry_name>
result.2020

> <s_m_Source_Path>
D:\OneDrive - zju.edu.cn\DOC\A-Finished\LCK_VS\Planet\LCK-8617

> <s_m_Source_File>
glide-dock_SP_top1262_2_pv.maegz

> <i_m_Source_File_Index>
2018

> <PLANET_affinity>
8.18

> <i_lp_mmshare_version>
54117

> <i_f3d_flags>
0

> <s_epik_input>
Tz1DMVtOSF1DKD1PKS9DKFMxKT1bQ0hdL2MyW2NIXWMoW2NIXVtjSF1jMkYpLWMzbmMoW2NIXVtjSF1jM1tOK10oW08tXSk9TylONFtDSDJdW0NIMl1OKEMoPU8pW0NIM10pW0NIMl1bQ0gyXTQ=

> <s_epik_cmdline>
J2VwaWtfcHl0aG9uJywgJy1waCcsICc3LjAnLCAnLXRuJywgJzgnLCAnLW1hJywgJzUwMCcsICctaW1hZScsICc8aW5maWxlLm1hZT4nLCAnLW9tYWUnLCAnPG91dGZpbGUubWFlPic=

> <r_epik_Ionization_Penalty>
  0.0630

> <r_epik_Ionization_Penalty_Charging>
  0.0630

> <r_epik_Ionization_Penalty_Neutral>
  0.0000

> <r_epik_State_Penalty>
  0.0548

> <r_epik_Charging_Adjusted_Penalty>
0.117817

> <i_epik_Tot_Q>
-1

> <i_epik_Tot_abs_Q>
3

> <s_lp_Force_Field>
S-OPLS

> <r_lp_Energy>
66.2324

> <b_lp_Chiralities_Consistent>
1

> <s_lp_Variant>
O=C(NC/1=O)SC1=C/C2=CC(C3=NC(N4CCN(C(C)=O)CC4)=CC=C3[N+]([O-])=O)=CC=C2F-1

> <s_i_glide_gridfile>
glide-grid_1

> <i_i_glide_lignum>
1116

> <i_i_glide_rotatable_bonds>
5

> <r_i_docking_score>
-7.00374897134038

> <r_i_glide_ligand_efficiency>
-0.212234817313345

> <r_i_glide_ligand_efficiency_sa>
-0.68075046175953

> <r_i_glide_ligand_efficiency_ln>
-1.55759750775471

> <r_i_glide_gscore>
-7.05854897134038

> <r_i_glide_lipo>
-1.47499925871909

> <r_i_glide_hbond>
-0.608

> <r_i_glide_metal>
0

> <r_i_glide_rewards>
-1.98161037992061

> <r_i_glide_evdw>
-40.4206123352051

> <r_i_glide_ecoul>
-8.31187534332275

> <r_i_glide_erotb>
0.273872585557983

> <r_i_glide_esite>
0

> <r_i_glide_emodel>
-68.4675400476594

> <r_i_glide_energy>
-48.7324876785278

> <r_i_glide_einternal>
3.93677115440369

> <i_i_glide_confnum>
337

> <i_i_glide_posenum>
332

> <r_i_glide_eff_state_penalty>
0.0548

> <r_lp_tautomer_probability>
1

> <s_m_subgroup_title>
glide-dock_SP_top1262_2_pv

> <s_m_subgroupid>
glide-dock_SP_top1262_2_pv

> <b_m_subgroup_collapsed>
0

$$$$
O=C1C(C(F)F)=CC2=CN=C(NC3CCN(S(=O)(C)=O)CC3)N=C2N1[C@@H]4[C@@](C)(O)CCC4
                    3D
 Schrodinger Suite 2021-3.
  0  0  0     0  0            999 V3000
M  V30 BEGIN CTAB
M  V30 COUNTS 59 62 0 0 0
M  V30 BEGIN ATOM
M  V30 1 F  20.2866 36.7560 85.1649 0
M  V30 2 C  21.1734 37.4872 85.8438 0
M  V30 3 F  21.1874 37.0825 87.1164 0
M  V30 4 C  22.5760 37.3692 85.2413 0
M  V30 5 C  22.9270 36.3420 84.4346 0
M  V30 6 C  23.5151 38.4476 85.5782 0
M  V30 7 O  23.1871 39.3360 86.3639 0
M  V30 8 N  24.7502 38.3874 84.9536 0
M  V30 9 C  25.7363 39.5163 85.1187 0 CFG=2
M  V30 10 C  26.4794 39.5799 86.4955 0 CFG=1
M  V30 11 C  26.4552 38.3078 87.3643 0
M  V30 12 O  27.8639 39.7822 86.2503 0
M  V30 13 C  25.1832 40.9458 84.8462 0
M  V30 14 C  25.6154 41.8117 86.0385 0
M  V30 15 C  25.8926 40.8251 87.1753 0
M  V30 16 C  25.1884 37.2585 84.1813 0
M  V30 17 C  24.2759 36.2343 83.8887 0
M  V30 18 N  26.4905 37.1625 83.7896 0
M  V30 19 C  26.8572 36.0623 83.0805 0
M  V30 20 N  26.0110 35.0691 82.7037 0
M  V30 21 C  24.7224 35.1610 83.1199 0
M  V30 22 N  28.1934 35.8790 82.7024 0
M  V30 23 C  29.2524 36.8824 82.8679 0
M  V30 24 C  29.5543 37.1549 84.3624 0
M  V30 25 C  30.8259 37.9981 84.5710 0
M  V30 26 N  31.9452 37.3753 83.8377 0 CFG=1
M  V30 27 S  33.4762 36.9675 84.6272 0
M  V30 28 O  34.5456 37.5929 83.8410 0
M  V30 29 O  33.3489 37.2293 86.0644 0
M  V30 30 C  33.6192 35.1131 84.3642 0
M  V30 31 C  31.7595 37.2128 82.3806 0
M  V30 32 C  30.5028 36.3603 82.1052 0
M  V30 33 H  20.7949 38.5122 85.8231 0
M  V30 34 H  22.2049 35.5692 84.2017 0
M  V30 35 H  26.5347 39.4315 84.3793 0
M  V30 36 H  25.4466 38.0276 87.6553 0
M  V30 37 H  26.8840 37.4611 86.8292 0
M  V30 38 H  27.0241 38.4359 88.2861 0
M  V30 39 H  28.2865 40.0502 87.0714 0
M  V30 40 H  24.0990 40.9856 84.7361 0
M  V30 41 H  25.5977 41.3639 83.9280 0
M  V30 42 H  24.8522 42.5453 86.3114 0
M  V30 43 H  26.5268 42.3630 85.7933 0
M  V30 44 H  26.5642 41.2501 87.9236 0
M  V30 45 H  24.9756 40.5713 87.7089 0
M  V30 46 H  24.0561 34.3569 82.8400 0
M  V30 47 H  28.2826 35.2597 81.9068 0
M  V30 48 H  28.9067 37.8198 82.4438 0
M  V30 49 H  28.7289 37.6494 84.8675 0
M  V30 50 H  29.6816 36.1938 84.8453 0
M  V30 51 H  30.6974 39.0202 84.2100 0
M  V30 52 H  31.0736 38.0634 85.6321 0
M  V30 53 H  34.5362 34.7645 84.8425 0
M  V30 54 H  32.7612 34.6273 84.8244 0
M  V30 55 H  33.6490 34.9028 83.2973 0
M  V30 56 H  31.6744 38.2058 81.9341 0
M  V30 57 H  32.6518 36.7539 81.9538 0
M  V30 58 H  30.7132 35.3233 82.3730 0
M  V30 59 H  30.3139 36.3561 81.0309 0
M  V30 END ATOM
M  V30 BEGIN BOND
M  V30 1 1 1 2
M  V30 2 1 2 3
M  V30 3 1 2 4
M  V30 4 1 2 33
M  V30 5 2 4 5
M  V30 6 1 4 6
M  V30 7 1 5 17
M  V30 8 1 5 34
M  V30 9 2 6 7
M  V30 10 1 6 8
M  V30 11 1 8 9
M  V30 12 1 8 16
M  V30 13 1 9 10
M  V30 14 1 9 13
M  V30 15 1 9 35
M  V30 16 1 10 11
M  V30 17 1 10 12
M  V30 18 1 10 15
M  V30 19 1 11 36
M  V30 20 1 11 37
M  V30 21 1 11 38
M  V30 22 1 12 39
M  V30 23 1 13 14
M  V30 24 1 13 40
M  V30 25 1 13 41
M  V30 26 1 14 15
M  V30 27 1 14 42
M  V30 28 1 14 43
M  V30 29 1 15 44
M  V30 30 1 15 45
M  V30 31 1 16 17
M  V30 32 2 16 18
M  V30 33 2 17 21
M  V30 34 1 18 19
M  V30 35 2 19 20
M  V30 36 1 19 22
M  V30 37 1 20 21
M  V30 38 1 21 46
M  V30 39 1 22 23
M  V30 40 1 22 47
M  V30 41 1 23 24
M  V30 42 1 23 32
M  V30 43 1 23 48
M  V30 44 1 24 25
M  V30 45 1 24 49
M  V30 46 1 24 50
M  V30 47 1 25 26
M  V30 48 1 25 51
M  V30 49 1 25 52
M  V30 50 1 26 27
M  V30 51 1 26 31
M  V30 52 2 27 28
M  V30 53 2 27 29
M  V30 54 1 27 30
M  V30 55 1 30 53
M  V30 56 1 30 54
M  V30 57 1 30 55
M  V30 58 1 31 32
M  V30 59 1 31 56
M  V30 60 1 31 57
M  V30 61 1 32 58
M  V30 62 1 32 59
M  V30 END BOND
M  V30 END CTAB
M  END
> <s_m_entry_id>
2021

> <s_m_entry_name>
result.7672

> <s_m_Source_Path>
D:\OneDrive - zju.edu.cn\DOC\A-Finished\LCK_VS\Planet\LCK-8617

> <s_m_Source_File>
glide-dock_SP_top1262_2_pv.maegz

> <i_m_Source_File_Index>
2021

> <PLANET_affinity>
8.354

> <i_lp_mmshare_version>
54117

> <i_f3d_flags>
0

> <s_epik_input>
W0NIMl0xW0NIMl1bQ0gyXVtDQEBIXShbQ0BAXTEoW0NIM10pW09IXSluMmMoPU8pYyhbQ0hdKEYpRilbY0hdYyhjMjMpW2NIXW5jKG4zKVtOSF1bQ0hdNFtDSDJdW0NIMl1OKFMoPU8pKD1PKVtDSDNdKVtDSDJdW0NIMl00

> <s_epik_cmdline>
J2VwaWtfcHl0aG9uJywgJy1waCcsICc3LjAnLCAnLXRuJywgJzgnLCAnLW1hJywgJzUwMCcsICctaW1hZScsICc8aW5maWxlLm1hZT4nLCAnLW9tYWUnLCAnPG91dGZpbGUubWFlPic=

> <r_epik_Ionization_Penalty>
  0.0000

> <r_epik_Ionization_Penalty_Charging>
  0.0000

> <r_epik_Ionization_Penalty_Neutral>
  0.0000

> <r_epik_State_Penalty>
  0.0000

> <r_epik_Charging_Adjusted_Penalty>
1.57033e-07

> <i_epik_Tot_Q>
0

> <i_epik_Tot_abs_Q>
0

> <s_epik_Chemistry_Notes>
This compound has an imine and may undergo hydrolysis.

> <s_lp_Force_Field>
S-OPLS

> <r_lp_Energy>
61.916

> <b_lp_Chiralities_Consistent>
1

> <s_lp_Variant>
O=C1C(C(F)F)=CC2=CN=C(NC3CCN(S(=O)(C)=O)CC3)N=C2N1[C@@H]4[C@@](C)(O)CCC4-1

> <s_i_glide_gridfile>
glide-grid_1

> <i_i_glide_lignum>
904

> <i_i_glide_rotatable_bonds>
6

> <r_i_docking_score>
-7.00285753700986

> <r_i_glide_ligand_efficiency>
-0.218839298031558

> <r_i_glide_ligand_efficiency_sa>
-0.694771463011924

> <r_i_glide_ligand_efficiency_ln>
-1.56813069322338

> <r_i_glide_gscore>
-7.00285753700986

> <r_i_glide_lipo>
-2.08886627771177

> <r_i_glide_hbond>
-0.23157232225494

> <r_i_glide_metal>
0

> <r_i_glide_rewards>
-2.41196049241923

> <r_i_glide_evdw>
-40.4607048034668

> <r_i_glide_ecoul>
-2.92012667655945

> <r_i_glide_erotb>
0.190919366696164

> <r_i_glide_esite>
-0.000323569662817856

> <r_i_glide_emodel>
-61.329787203456

> <r_i_glide_energy>
-43.3808314800262

> <r_i_glide_einternal>
2.72955584526062

> <i_i_glide_confnum>
22

> <i_i_glide_posenum>
279

> <r_i_glide_eff_state_penalty>
0

> <r_lp_tautomer_probability>
1

> <s_m_subgroup_title>
glide-dock_SP_top1262_2_pv

> <s_m_subgroupid>
glide-dock_SP_top1262_2_pv

> <b_m_subgroup_collapsed>
0

$$$$
O=C(C1=CC=C(C(N2CCC(N3CCCC3)CC2)=O)C=C1NC4=CC=CC=C4)N5CCC(N6CCCC6)CC5
                    3D
 Schrodinger Suite 2021-3.
  0  0  0     0  0            999 V3000
M  V30 BEGIN CTAB
M  V30 COUNTS 84 89 0 0 0
M  V30 BEGIN ATOM
M  V30 1 C  35.5732 34.3684 83.6548 0
M  V30 2 C  36.1378 32.9500 83.5046 0
M  V30 3 C  35.0419 32.1063 82.8585 0
M  V30 4 C  34.0753 33.1028 82.2302 0
M  V30 5 N  34.0933 34.2845 83.2179 0 CHG=1
M  V30 6 C  33.5214 35.6184 82.6667 0
M  V30 7 C  32.0922 35.3985 82.1100 0
M  V30 8 C  31.3495 36.7242 81.7917 0
M  V30 9 C  33.5171 36.6800 83.7983 0
M  V30 10 C  32.7263 37.9525 83.4201 0
M  V30 11 N  31.3686 37.5282 83.0239 0
M  V30 12 C  30.3304 37.6812 83.8986 0
M  V30 13 O  30.5004 38.1757 85.0148 0
M  V30 14 C  28.9080 37.3048 83.5098 0
M  V30 15 C  28.6289 36.0067 83.0582 0
M  V30 16 C  27.3235 35.5834 82.8436 0
M  V30 17 C  26.2468 36.4272 83.1239 0
M  V30 18 C  26.5168 37.7593 83.4590 0
M  V30 19 C  27.8279 38.2086 83.6890 0
M  V30 20 N  28.0868 39.5482 84.0550 0
M  V30 21 C  27.3355 40.6527 84.4901 0
M  V30 22 C  27.9708 41.8963 84.4440 0
M  V30 23 C  27.2984 43.0489 84.8417 0
M  V30 24 C  25.9858 42.9562 85.2999 0
M  V30 25 C  25.3554 41.7180 85.3924 0
M  V30 26 C  26.0345 40.5648 85.0032 0
M  V30 27 C  24.8382 35.8874 83.0005 0
M  V30 28 O  24.6023 35.1568 82.0434 0
M  V30 29 N  23.8781 36.1653 83.9311 0
M  V30 30 C  22.5196 35.5921 83.7386 0
M  V30 31 C  21.4758 36.6876 84.0439 0
M  V30 32 C  21.6856 37.3949 85.3993 0
M  V30 33 C  23.1480 37.8840 85.5012 0
M  V30 34 C  24.1579 36.7400 85.2648 0
M  V30 35 N  20.6952 38.5853 85.4965 0 CHG=1
M  V30 36 C  19.2058 38.1527 85.5093 0
M  V30 37 C  18.4889 39.1290 86.4491 0
M  V30 38 C  19.5123 40.1938 86.8231 0
M  V30 39 C  20.8454 39.4632 86.7545 0
M  V30 40 H  35.5961 34.7508 84.6772 0
M  V30 41 H  36.0725 35.0682 82.9838 0
M  V30 42 H  36.4275 32.5429 84.4774 0
M  V30 43 H  37.0357 32.9664 82.8848 0
M  V30 44 H  35.4422 31.4116 82.1185 0
M  V30 45 H  34.5284 31.5132 83.6179 0
M  V30 46 H  34.4183 33.4883 81.2666 0
M  V30 47 H  33.0539 32.7395 82.1210 0
M  V30 48 H  34.1385 35.9951 81.8471 0
M  V30 49 H  32.1130 34.7392 81.2436 0
M  V30 50 H  31.5131 34.8435 82.8486 0
M  V30 51 H  31.9069 37.2851 81.0396 0
M  V30 52 H  30.3675 36.6250 81.3303 0
M  V30 53 H  33.0552 36.2591 84.6943 0
M  V30 54 H  34.5321 36.9230 84.1126 0
M  V30 55 H  33.1794 38.4328 82.5512 0
M  V30 56 H  32.7295 38.7385 84.1803 0
M  V30 57 H  29.4079 35.2746 82.9242 0
M  V30 58 H  27.1586 34.5626 82.5260 0
M  V30 59 H  25.6867 38.4391 83.5214 0
M  V30 60 H  29.0670 39.7747 83.9763 0
M  V30 61 H  28.9869 41.9866 84.0812 0
M  V30 62 H  27.7907 44.0090 84.7827 0
M  V30 63 H  25.4573 43.8505 85.5976 0
M  V30 64 H  24.3475 41.6521 85.7770 0
M  V30 65 H  25.5437 39.6188 85.1501 0
M  V30 66 H  22.3407 35.2425 82.7184 0
M  V30 67 H  22.3846 34.7569 84.4220 0
M  V30 68 H  21.5303 37.4209 83.2440 0
M  V30 69 H  20.4615 36.3027 83.9496 0
M  V30 70 H  21.5067 36.6801 86.2068 0
M  V30 71 H  23.3329 38.3639 86.4617 0
M  V30 72 H  23.3288 38.6702 84.7657 0
M  V30 73 H  23.9912 35.9563 86.0060 0
M  V30 74 H  25.1793 37.0914 85.4067 0
M  V30 75 H  18.8508 38.2002 84.4777 0
M  V30 76 H  19.1395 37.1360 85.9032 0
M  V30 77 H  17.5972 39.5566 85.9904 0
M  V30 78 H  18.1459 38.6030 87.3422 0
M  V30 79 H  19.3158 40.6221 87.8046 0
M  V30 80 H  19.4982 41.0193 86.1087 0
M  V30 81 H  21.0080 38.7854 87.5954 0
M  V30 82 H  21.7149 40.1116 86.6351 0
M  V30 83 H  33.5403 34.0170 84.0222 0
M  V30 84 H  20.8504 39.1922 84.7030 0
M  V30 END ATOM
M  V30 BEGIN BOND
M  V30 1 1 1 2
M  V30 2 1 1 5
M  V30 3 1 1 40
M  V30 4 1 1 41
M  V30 5 1 2 3
M  V30 6 1 2 42
M  V30 7 1 2 43
M  V30 8 1 3 4
M  V30 9 1 3 44
M  V30 10 1 3 45
M  V30 11 1 4 5
M  V30 12 1 4 46
M  V30 13 1 4 47
M  V30 14 1 5 6
M  V30 15 1 5 83
M  V30 16 1 6 7
M  V30 17 1 6 9
M  V30 18 1 6 48
M  V30 19 1 7 8
M  V30 20 1 7 49
M  V30 21 1 7 50
M  V30 22 1 8 11
M  V30 23 1 8 51
M  V30 24 1 8 52
M  V30 25 1 9 10
M  V30 26 1 9 53
M  V30 27 1 9 54
M  V30 28 1 10 11
M  V30 29 1 10 55
M  V30 30 1 10 56
M  V30 31 1 11 12
M  V30 32 2 12 13
M  V30 33 1 12 14
M  V30 34 2 14 15
M  V30 35 1 14 19
M  V30 36 1 15 16
M  V30 37 1 15 57
M  V30 38 2 16 17
M  V30 39 1 16 58
M  V30 40 1 17 18
M  V30 41 1 17 27
M  V30 42 2 18 19
M  V30 43 1 18 59
M  V30 44 1 19 20
M  V30 45 1 20 21
M  V30 46 1 20 60
M  V30 47 2 21 22
M  V30 48 1 21 26
M  V30 49 1 22 23
M  V30 50 1 22 61
M  V30 51 2 23 24
M  V30 52 1 23 62
M  V30 53 1 24 25
M  V30 54 1 24 63
M  V30 55 2 25 26
M  V30 56 1 25 64
M  V30 57 1 26 65
M  V30 58 2 27 28
M  V30 59 1 27 29
M  V30 60 1 29 30
M  V30 61 1 29 34
M  V30 62 1 30 31
M  V30 63 1 30 66
M  V30 64 1 30 67
M  V30 65 1 31 32
M  V30 66 1 31 68
M  V30 67 1 31 69
M  V30 68 1 32 33
M  V30 69 1 32 35
M  V30 70 1 32 70
M  V30 71 1 33 34
M  V30 72 1 33 71
M  V30 73 1 33 72
M  V30 74 1 34 73
M  V30 75 1 34 74
M  V30 76 1 35 36
M  V30 77 1 35 39
M  V30 78 1 35 84
M  V30 79 1 36 37
M  V30 80 1 36 75
M  V30 81 1 36 76
M  V30 82 1 37 38
M  V30 83 1 37 77
M  V30 84 1 37 78
M  V30 85 1 38 39
M  V30 86 1 38 79
M  V30 87 1 38 80
M  V30 88 1 39 81
M  V30 89 1 39 82
M  V30 END BOND
M  V30 END CTAB
M  END
> <s_m_entry_id>
2022

> <s_m_entry_name>
result.3993

> <s_m_Source_Path>
D:\OneDrive - zju.edu.cn\DOC\A-Finished\LCK_VS\Planet\LCK-8617

> <s_m_Source_File>
glide-dock_SP_top1262_2_pv.maegz

> <i_m_Source_File_Index>
2022

> <PLANET_affinity>
7.568

> <i_lp_mmshare_version>
54117

> <i_f3d_flags>
0

> <s_epik_input>
W0NIMl0xW0NIMl1bQ0gyXVtDSDJdTjFbQ0hdMltDSDJdW0NIMl1OKFtDSDJdW0NIMl0yKUMoPU8pYzNbY0hdW2NIXWMoW2NIXWMzW05IXWM0W2NIXVtjSF1bY0hdW2NIXVtjSF00KUMoPU8pTjVbQ0gyXVtDSDJdW0NIXShbQ0gyXVtDSDJdNSlONltDSDJdW0NIMl1bQ0gyXVtDSDJdNg==

> <s_epik_cmdline>
J2VwaWtfcHl0aG9uJywgJy1waCcsICc3LjAnLCAnLXRuJywgJzgnLCAnLW1hJywgJzUwMCcsICctaW1hZScsICc8aW5maWxlLm1hZT4nLCAnLW9tYWUnLCAnPG91dGZpbGUubWFlPic=

> <r_epik_Ionization_Penalty>
  0.0020

> <r_epik_Ionization_Penalty_Charging>
  0.0020

> <r_epik_Ionization_Penalty_Neutral>
  0.0000

> <r_epik_State_Penalty>
  0.0000

> <r_epik_Charging_Adjusted_Penalty>
0.00197289

> <i_epik_Tot_Q>
2

> <i_epik_Tot_abs_Q>
2

> <s_lp_Force_Field>
S-OPLS

> <r_lp_Energy>
85.5533

> <b_lp_Chiralities_Consistent>
1

> <s_lp_Variant>
O=C(C1=CC=C(C(N2CCC(N3CCCC3)CC2)=O)C=C1NC4=CC=CC=C4)N5CCC(N6CCCC6)CC5-1

> <s_i_glide_gridfile>
glide-grid_1

> <i_i_glide_lignum>
1843

> <i_i_glide_rotatable_bonds>
8

> <r_i_docking_score>
-7.00225723417874

> <r_i_glide_ligand_efficiency>
-0.179545057286634

> <r_i_glide_ligand_efficiency_sa>
-0.608875252063518

> <r_i_glide_ligand_efficiency_ln>
-1.5014827218999

> <r_i_glide_gscore>
-7.00225723417874

> <r_i_glide_lipo>
-2.40749572253598

> <r_i_glide_hbond>
-0.273695457040119

> <r_i_glide_metal>
0

> <r_i_glide_rewards>
-1.33382424285039

> <r_i_glide_evdw>
-49.9296379089355

> <r_i_glide_ecoul>
-7.0345311164856

> <r_i_glide_erotb>
0.583485942998108

> <r_i_glide_esite>
-0.019066191830749

> <r_i_glide_emodel>
-83.7138141866857

> <r_i_glide_energy>
-56.9641690254211

> <r_i_glide_einternal>
3.81242322921753

> <i_i_glide_confnum>
355

> <i_i_glide_posenum>
276

> <r_i_glide_eff_state_penalty>
0

> <r_lp_tautomer_probability>
1

> <s_m_subgroup_title>
glide-dock_SP_top1262_2_pv

> <s_m_subgroupid>
glide-dock_SP_top1262_2_pv

> <b_m_subgroup_collapsed>
0

$$$$
CC(C=C(OCC1=NN=C(SC2CCCC2)N1C3=CC=CN=C3)C=C4)=C4C5=CC=C(S(=O)(C)=O)C=C5
                    3D
 Schrodinger Suite 2021-3.
  0  0  0     0  0            999 V3000
M  V30 BEGIN CTAB
M  V30 COUNTS 64 68 0 0 0
M  V30 BEGIN ATOM
M  V30 1 O  32.0278 36.7570 81.2439 0
M  V30 2 S  31.8311 37.2423 82.6114 0
M  V30 3 O  32.2720 38.5884 82.9927 0
M  V30 4 C  32.6154 36.0097 83.7943 0
M  V30 5 C  30.0809 37.1204 82.9671 0
M  V30 6 C  29.4303 38.1573 83.6355 0
M  V30 7 C  28.0658 38.0635 83.8873 0
M  V30 8 C  29.3678 35.9956 82.5507 0
M  V30 9 C  28.0093 35.8955 82.8436 0
M  V30 10 C  27.3447 36.9109 83.5474 0
M  V30 11 C  25.9108 36.7394 83.9539 0
M  V30 12 C  24.9940 36.1777 83.0510 0
M  V30 13 C  23.6607 35.9552 83.4092 0
M  V30 14 C  23.2013 36.2613 84.6888 0
M  V30 15 C  24.1098 36.8229 85.5845 0
M  V30 16 C  25.4336 37.0765 85.2408 0
M  V30 17 C  26.3144 37.6427 86.3451 0
M  V30 18 O  21.8838 35.9571 84.9938 0
M  V30 19 C  21.3890 35.9745 86.3448 0
M  V30 20 C  21.3285 37.3728 86.9501 0
M  V30 21 N  22.0227 37.7339 88.0005 0
M  V30 22 N  21.8259 39.0920 88.1819 0
M  V30 23 C  20.9486 39.4765 87.2972 0
M  V30 24 S  20.4806 41.1562 87.1140 0
M  V30 25 C  21.9757 41.6356 86.1888 0
M  V30 26 C  22.1175 41.0210 84.7881 0
M  V30 27 C  22.9874 42.0133 83.9976 0
M  V30 28 C  23.2854 43.1829 84.9492 0
M  V30 29 C  22.1906 43.1331 86.0147 0
M  V30 30 N  20.5370 38.4158 86.5138 0
M  V30 31 C  19.5465 38.4077 85.5205 0
M  V30 32 C  18.2400 38.7869 85.8449 0
M  V30 33 C  17.2591 38.7569 84.8570 0
M  V30 34 C  17.6178 38.3562 83.5706 0
M  V30 35 N  18.8727 37.9656 83.2436 0
M  V30 36 C  19.8228 38.0091 84.2091 0
M  V30 37 H  33.6800 35.9556 83.5737 0
M  V30 38 H  32.4672 36.3551 84.8161 0
M  V30 39 H  32.1552 35.0337 83.6453 0
M  V30 40 H  29.9697 39.0432 83.9392 0
M  V30 41 H  27.5790 38.8915 84.3778 0
M  V30 42 H  29.8630 35.1989 82.0118 0
M  V30 43 H  27.4839 34.9998 82.5457 0
M  V30 44 H  25.3132 35.9140 82.0529 0
M  V30 45 H  22.9813 35.5136 82.6935 0
M  V30 46 H  23.8155 37.0663 86.5799 0
M  V30 47 H  26.4350 38.7216 86.2464 0
M  V30 48 H  25.9157 37.4393 87.3386 0
M  V30 49 H  27.2857 37.1643 86.3186 0
M  V30 50 H  21.9605 35.2678 86.9495 0
M  V30 51 H  20.3816 35.5593 86.3177 0
M  V30 52 H  22.7862 41.2607 86.8172 0
M  V30 53 H  22.5933 40.0404 84.8282 0
M  V30 54 H  21.1454 40.9120 84.3062 0
M  V30 55 H  23.9127 41.5565 83.6457 0
M  V30 56 H  22.4484 42.3582 83.1146 0
M  V30 57 H  24.2635 43.0450 85.4128 0
M  V30 58 H  23.3060 44.1460 84.4425 0
M  V30 59 H  21.2902 43.6215 85.6446 0
M  V30 60 H  22.5155 43.6260 86.9314 0
M  V30 61 H  17.9801 39.1067 86.8454 0
M  V30 62 H  16.2443 39.0435 85.0928 0
M  V30 63 H  16.8840 38.3214 82.7794 0
M  V30 64 H  20.8199 37.7463 83.8934 0
M  V30 END ATOM
M  V30 BEGIN BOND
M  V30 1 2 1 2
M  V30 2 2 2 3
M  V30 3 1 2 4
M  V30 4 1 2 5
M  V30 5 1 4 37
M  V30 6 1 4 38
M  V30 7 1 4 39
M  V30 8 2 5 6
M  V30 9 1 5 8
M  V30 10 1 6 7
M  V30 11 1 6 40
M  V30 12 2 7 10
M  V30 13 1 7 41
M  V30 14 2 8 9
M  V30 15 1 8 42
M  V30 16 1 9 10
M  V30 17 1 9 43
M  V30 18 1 10 11
M  V30 19 2 11 12
M  V30 20 1 11 16
M  V30 21 1 12 13
M  V30 22 1 12 44
M  V30 23 2 13 14
M  V30 24 1 13 45
M  V30 25 1 14 15
M  V30 26 1 14 18
M  V30 27 2 15 16
M  V30 28 1 15 46
M  V30 29 1 16 17
M  V30 30 1 17 47
M  V30 31 1 17 48
M  V30 32 1 17 49
M  V30 33 1 18 19
M  V30 34 1 19 20
M  V30 35 1 19 50
M  V30 36 1 19 51
M  V30 37 2 20 21
M  V30 38 1 20 30
M  V30 39 1 21 22
M  V30 40 2 22 23
M  V30 41 1 23 24
M  V30 42 1 23 30
M  V30 43 1 24 25
M  V30 44 1 25 26
M  V30 45 1 25 29
M  V30 46 1 25 52
M  V30 47 1 26 27
M  V30 48 1 26 53
M  V30 49 1 26 54
M  V30 50 1 27 28
M  V30 51 1 27 55
M  V30 52 1 27 56
M  V30 53 1 28 29
M  V30 54 1 28 57
M  V30 55 1 28 58
M  V30 56 1 29 59
M  V30 57 1 29 60
M  V30 58 1 30 31
M  V30 59 2 31 32
M  V30 60 1 31 36
M  V30 61 1 32 33
M  V30 62 1 32 61
M  V30 63 2 33 34
M  V30 64 1 33 62
M  V30 65 1 34 35
M  V30 66 1 34 63
M  V30 67 2 35 36
M  V30 68 1 36 64
M  V30 END BOND
M  V30 END CTAB
M  END
> <s_m_entry_id>
2026

> <s_m_entry_name>
result.7701

> <s_m_Source_Path>
D:\OneDrive - zju.edu.cn\DOC\A-Finished\LCK_VS\Planet\LCK-8617

> <s_m_Source_File>
glide-dock_SP_top1262_2_pv.maegz

> <i_m_Source_File_Index>
2026

> <PLANET_affinity>
7.748

> <i_lp_mmshare_version>
54117

> <i_f3d_flags>
0

> <s_epik_input>
Tz1TKD1PKShbQ0gzXSljMVtjSF1bY0hdYyhbY0hdW2NIXTEpLWMyW2NIXVtjSF1jKFtjSF1jMltDSDNdKU9bQ0gyXWMzbm5jKFNbQ0hdNFtDSDJdW0NIMl1bQ0gyXVtDSDJdNCluMy1jNVtjSF1bY0hdW2NIXW5bY0hdNQ==

> <s_epik_cmdline>
J2VwaWtfcHl0aG9uJywgJy1waCcsICc3LjAnLCAnLXRuJywgJzgnLCAnLW1hJywgJzUwMCcsICctaW1hZScsICc8aW5maWxlLm1hZT4nLCAnLW9tYWUnLCAnPG91dGZpbGUubWFlPic=

> <r_epik_Ionization_Penalty>
  0.0000

> <r_epik_Ionization_Penalty_Charging>
  0.0000

> <r_epik_Ionization_Penalty_Neutral>
  0.0000

> <r_epik_State_Penalty>
  0.0000

> <r_epik_Charging_Adjusted_Penalty>
0

> <i_epik_Tot_Q>
0

> <i_epik_Tot_abs_Q>
0

> <s_lp_Force_Field>
S-OPLS

> <r_lp_Energy>
51.9448

> <b_lp_Chiralities_Consistent>
1

> <s_lp_Variant>
CC(C=C(OCC1=NN=C(SC2CCCC2)N1C3=CC=CN=C3)C=C4)=C4C5=CC=C(S(=O)(C)=O)C=C5-1

> <s_i_glide_gridfile>
glide-grid_1

> <i_i_glide_lignum>
1576

> <i_i_glide_rotatable_bonds>
8

> <r_i_docking_score>
-7.00164735512126

> <r_i_glide_ligand_efficiency>
-0.194490204308924

> <r_i_glide_ligand_efficiency_sa>
-0.642192504483616

> <r_i_glide_ligand_efficiency_ln>
-1.52757029023636

> <r_i_glide_gscore>
-7.00164735512126

> <r_i_glide_lipo>
-3.94743143036565

> <r_i_glide_hbond>
-0.0633192085492663

> <r_i_glide_metal>
0

> <r_i_glide_rewards>
-0.65364442810438

> <r_i_glide_evdw>
-51.3748779296875

> <r_i_glide_ecoul>
-1.96026849746704

> <r_i_glide_erotb>
0.530693227145599

> <r_i_glide_esite>
-0.00516134414313259

> <r_i_glide_emodel>
-74.3277031797329

> <r_i_glide_energy>
-53.3351464271545

> <r_i_glide_einternal>
3.50946664810181

> <i_i_glide_confnum>
193

> <i_i_glide_posenum>
217

> <r_i_glide_eff_state_penalty>
0

> <r_lp_tautomer_probability>
1

> <s_m_subgroup_title>
glide-dock_SP_top1262_2_pv

> <s_m_subgroupid>
glide-dock_SP_top1262_2_pv

> <b_m_subgroup_collapsed>
0

$$$$
O=C(C=C)NC1=CC=CC(OC2=C(OC=C3)C3=NC(NC4=CC=C(N5CCN(C)CC5)C=C4)=N2)=C1
                    3D
 Schrodinger Suite 2021-3.
  0  0  0     0  0            999 V3000
M  V30 BEGIN CTAB
M  V30 COUNTS 62 66 0 0 0
M  V30 BEGIN ATOM
M  V30 1 C  22.1751 47.1153 86.8470 0
M  V30 2 C  23.4973 46.8419 86.8154 0
M  V30 3 C  24.0789 45.5262 86.6485 0
M  V30 4 O  25.2209 45.2946 87.0443 0
M  V30 5 N  23.2829 44.6207 86.0435 0
M  V30 6 C  23.5432 43.2917 85.6760 0
M  V30 7 C  24.8195 42.7272 85.5418 0
M  V30 8 C  24.9520 41.4019 85.1251 0
M  V30 9 C  23.8211 40.6324 84.8432 0
M  V30 10 C  22.5357 41.1851 84.9714 0
M  V30 11 C  22.4234 42.5135 85.3837 0
M  V30 12 O  21.3282 40.5472 84.7519 0
M  V30 13 C  21.0900 39.1880 84.8049 0
M  V30 14 N  22.0116 38.2500 84.4684 0
M  V30 15 C  21.6563 36.9427 84.6264 0
M  V30 16 N  20.4752 36.4774 85.1202 0
M  V30 17 C  19.5887 37.4210 85.4600 0
M  V30 18 C  19.8453 38.7887 85.2773 0
M  V30 19 C  18.2946 37.3719 86.0673 0
M  V30 20 C  17.8441 38.6859 86.0997 0
M  V30 21 O  18.7870 39.5567 85.6494 0
M  V30 22 N  22.5650 35.9566 84.2368 0
M  V30 23 C  23.9358 36.1027 83.9929 0
M  V30 24 C  24.4948 35.5567 82.8399 0
M  V30 25 C  25.8548 35.7305 82.5806 0
M  V30 26 C  26.6832 36.4274 83.4765 0
M  V30 27 C  26.0986 36.9441 84.6427 0
M  V30 28 C  24.7424 36.7852 84.8999 0
M  V30 29 N  28.0610 36.5637 83.2629 0
M  V30 30 C  28.7765 35.8132 82.2100 0
M  V30 31 C  30.2730 35.5832 82.4845 0
M  V30 32 N  30.9560 36.9511 82.6505 0 CHG=1
M  V30 33 C  32.4718 36.7720 82.8864 0
M  V30 34 C  30.3034 37.6863 83.8384 0
M  V30 35 C  28.7747 37.8123 83.6200 0
M  V30 36 H  21.4106 46.3560 86.7408 0
M  V30 37 H  21.8288 48.1301 86.9846 0
M  V30 38 H  24.2165 47.6358 86.9455 0
M  V30 39 H  22.3671 44.9536 85.7693 0
M  V30 40 H  25.7104 43.3049 85.7327 0
M  V30 41 H  25.9365 40.9735 85.0147 0
M  V30 42 H  23.9813 39.6228 84.5054 0
M  V30 43 H  21.4401 42.9484 85.4966 0
M  V30 44 H  17.7421 36.5265 86.4438 0
M  V30 45 H  16.9302 39.1536 86.4451 0
M  V30 46 H  22.2229 35.0119 84.3421 0
M  V30 47 H  23.8691 35.0277 82.1348 0
M  V30 48 H  26.2533 35.3222 81.6670 0
M  V30 49 H  26.6870 37.4545 85.3872 0
M  V30 50 H  24.3175 37.1952 85.8050 0
M  V30 51 H  28.3175 34.8358 82.0607 0
M  V30 52 H  28.6809 36.3544 81.2689 0
M  V30 53 H  30.7594 35.0811 81.6445 0
M  V30 54 H  30.4461 35.0032 83.3919 0
M  V30 55 H  32.6170 36.1743 83.7891 0
M  V30 56 H  32.8830 36.2695 82.0083 0
M  V30 57 H  32.9047 37.7686 82.9949 0
M  V30 58 H  30.7759 38.6704 83.8819 0
M  V30 59 H  30.5390 37.1496 84.7589 0
M  V30 60 H  28.6034 38.5500 82.8403 0
M  V30 61 H  28.3629 38.2595 84.5227 0
M  V30 62 H  30.8046 37.4854 81.8052 0
M  V30 END ATOM
M  V30 BEGIN BOND
M  V30 1 2 1 2
M  V30 2 1 1 36
M  V30 3 1 1 37
M  V30 4 1 2 3
M  V30 5 1 2 38
M  V30 6 2 3 4
M  V30 7 1 3 5
M  V30 8 1 5 6
M  V30 9 1 5 39
M  V30 10 2 6 7
M  V30 11 1 6 11
M  V30 12 1 7 8
M  V30 13 1 7 40
M  V30 14 2 8 9
M  V30 15 1 8 41
M  V30 16 1 9 10
M  V30 17 1 9 42
M  V30 18 2 10 11
M  V30 19 1 10 12
M  V30 20 1 11 43
M  V30 21 1 12 13
M  V30 22 2 13 14
M  V30 23 1 13 18
M  V30 24 1 14 15
M  V30 25 2 15 16
M  V30 26 1 15 22
M  V30 27 1 16 17
M  V30 28 2 17 18
M  V30 29 1 17 19
M  V30 30 1 18 21
M  V30 31 2 19 20
M  V30 32 1 19 44
M  V30 33 1 20 21
M  V30 34 1 20 45
M  V30 35 1 22 23
M  V30 36 1 22 46
M  V30 37 2 23 24
M  V30 38 1 23 28
M  V30 39 1 24 25
M  V30 40 1 24 47
M  V30 41 2 25 26
M  V30 42 1 25 48
M  V30 43 1 26 27
M  V30 44 1 26 29
M  V30 45 2 27 28
M  V30 46 1 27 49
M  V30 47 1 28 50
M  V30 48 1 29 30
M  V30 49 1 29 35
M  V30 50 1 30 31
M  V30 51 1 30 51
M  V30 52 1 30 52
M  V30 53 1 31 32
M  V30 54 1 31 53
M  V30 55 1 31 54
M  V30 56 1 32 33
M  V30 57 1 32 34
M  V30 58 1 32 62
M  V30 59 1 33 55
M  V30 60 1 33 56
M  V30 61 1 33 57
M  V30 62 1 34 35
M  V30 63 1 34 58
M  V30 64 1 34 59
M  V30 65 1 35 60
M  V30 66 1 35 61
M  V30 END BOND
M  V30 END CTAB
M  END
> <s_m_entry_id>
2028

> <s_m_entry_name>
result.4526

> <s_m_Source_Path>
D:\OneDrive - zju.edu.cn\DOC\A-Finished\LCK_VS\Planet\LCK-8617

> <s_m_Source_File>
glide-dock_SP_top1262_2_pv.maegz

> <i_m_Source_File_Index>
2028

> <PLANET_affinity>
7.703

> <i_lp_mmshare_version>
54117

> <i_f3d_flags>
0

> <s_epik_input>
W0NIMl09W0NIXUMoPU8pW05IXWMxW2NIXVtjSF1bY0hdYyhbY0hdMSlPYyhjKGMyMylvW2NIXVtjSF0zKW5jKG4yKVtOSF1jNFtjSF1bY0hdYyhbY0hdW2NIXTQpTjVbQ0gyXVtDSDJdTihbQ0gzXSlbQ0gyXVtDSDJdNQ==

> <s_epik_cmdline>
J2VwaWtfcHl0aG9uJywgJy1waCcsICc3LjAnLCAnLXRuJywgJzgnLCAnLW1hJywgJzUwMCcsICctaW1hZScsICc8aW5maWxlLm1hZT4nLCAnLW9tYWUnLCAnPG91dGZpbGUubWFlPic=

> <r_epik_Ionization_Penalty>
  0.0744

> <r_epik_Ionization_Penalty_Charging>
  0.0647

> <r_epik_Ionization_Penalty_Neutral>
  0.0096

> <r_epik_State_Penalty>
  0.4007

> <r_epik_Charging_Adjusted_Penalty>
0.465418

> <i_epik_Tot_Q>
1

> <i_epik_Tot_abs_Q>
1

> <s_lp_Force_Field>
S-OPLS

> <r_lp_Energy>
59.2733

> <b_lp_Chiralities_Consistent>
1

> <s_lp_Variant>
O=C(C=C)NC1=CC=CC(OC2=C(OC=C3)C3=NC(NC4=CC=C(N5CCN(C)CC5)C=C4)=N2)=C1-1

> <s_i_glide_gridfile>
glide-grid_1

> <i_i_glide_lignum>
1646

> <i_i_glide_rotatable_bonds>
8

> <r_i_docking_score>
-7.00057058635848

> <r_i_glide_ligand_efficiency>
-0.200016302467385

> <r_i_glide_ligand_efficiency_sa>
-0.654266587714173

> <r_i_glide_ligand_efficiency_ln>
-1.53678061299878

> <r_i_glide_gscore>
-7.40127058635848

> <r_i_glide_lipo>
-2.9677144880063

> <r_i_glide_hbond>
-0.52465267716106

> <r_i_glide_metal>
0

> <r_i_glide_rewards>
-0.682094811406483

> <r_i_glide_evdw>
-43.1931381225586

> <r_i_glide_ecoul>
-11.3849029541016

> <r_i_glide_erotb>
0.727287399588263

> <r_i_glide_esite>
-0.0867036601297392

> <r_i_glide_emodel>
-76.3758131332117

> <r_i_glide_energy>
-54.5780410766602

> <r_i_glide_einternal>
10.7673921585083

> <i_i_glide_confnum>
21

> <i_i_glide_posenum>
351

> <r_i_glide_eff_state_penalty>
0.4007

> <r_lp_tautomer_probability>
1

> <s_m_subgroup_title>
glide-dock_SP_top1262_2_pv

> <s_m_subgroupid>
glide-dock_SP_top1262_2_pv

> <b_m_subgroup_collapsed>
0

$$$$
O=C([C@H]1N(C(CN2N=C(C(C)=O)C3=C2C=CC(C4=CN=C(C)N=C4)=C3)=O)C[C@H](F)C1)NC5=N...
                    3D
 Schrodinger Suite 2021-3.
  0  0  0     0  0            999 V3000
M  V30 BEGIN CTAB
M  V30 COUNTS 61 65 0 0 0
M  V30 BEGIN ATOM
M  V30 1 C  17.6652 45.5004 89.8440 0
M  V30 2 C  16.4893 45.7503 90.5498 0
M  V30 3 C  16.3018 45.1653 91.8029 0
M  V30 4 C  17.3033 44.3385 92.3162 0
M  V30 5 Br 17.0618 43.5433 94.0292 0
M  V30 6 N  18.4478 44.0803 91.6331 0
M  V30 7 C  18.6294 44.6602 90.4111 0
M  V30 8 N  19.7795 44.4091 89.6433 0
M  V30 9 C  21.0085 44.0511 90.0832 0
M  V30 10 O  21.2843 43.8438 91.2663 0
M  V30 11 C  22.1229 43.8484 89.0202 0 CFG=1
M  V30 12 N  21.7688 42.9918 87.8616 0
M  V30 13 C  22.1400 43.6162 86.5779 0
M  V30 14 C  22.9740 44.8322 86.9777 0 CFG=2
M  V30 15 F  24.2522 44.4565 87.0695 0
M  V30 16 C  22.4893 45.1952 88.3680 0
M  V30 17 C  21.3017 41.7209 87.9694 0
M  V30 18 O  21.2829 41.1209 89.0469 0
M  V30 19 C  20.7321 41.0092 86.7281 0
M  V30 20 N  21.2081 39.6404 86.5575 0
M  V30 21 N  20.5165 38.6095 87.0735 0
M  V30 22 C  21.1735 37.5019 86.8098 0
M  V30 23 C  20.6665 36.1972 87.2422 0
M  V30 24 O  19.5466 36.0550 87.7297 0
M  V30 25 C  21.5457 34.9649 87.0996 0
M  V30 26 C  22.3847 39.2196 85.9739 0
M  V30 27 C  22.3885 37.8050 86.0846 0
M  V30 28 C  23.4173 39.9353 85.3669 0
M  V30 29 C  24.4677 39.1926 84.8420 0
M  V30 30 C  24.5092 37.7971 84.8816 0
M  V30 31 C  23.4722 37.0965 85.5166 0
M  V30 32 C  25.6434 37.0919 84.2201 0
M  V30 33 C  25.4727 35.9119 83.4781 0
M  V30 34 N  26.4908 35.2978 82.8170 0
M  V30 35 C  27.7059 35.9028 82.8984 0
M  V30 36 C  28.8799 35.2224 82.2236 0
M  V30 37 N  27.9935 37.0320 83.5925 0
M  V30 38 C  26.9512 37.6025 84.2496 0
M  V30 39 H  17.8144 45.9302 88.8619 0
M  V30 40 H  15.7298 46.3895 90.1230 0
M  V30 41 H  15.3998 45.3521 92.3660 0
M  V30 42 H  19.6828 44.6234 88.6546 0
M  V30 43 H  22.9843 43.4473 89.5575 0
M  V30 44 H  22.7730 42.9651 85.9749 0
M  V30 45 H  21.2830 43.9559 86.0005 0
M  V30 46 H  22.8954 45.6522 86.2621 0
M  V30 47 H  23.2226 45.7499 88.9562 0
M  V30 48 H  21.6259 45.8565 88.2627 0
M  V30 49 H  20.9262 41.5452 85.8016 0
M  V30 50 H  19.6452 40.9852 86.8388 0
M  V30 51 H  22.5144 35.1324 87.5673 0
M  V30 52 H  21.0772 34.1054 87.5792 0
M  V30 53 H  21.6817 34.7322 86.0458 0
M  V30 54 H  23.4076 41.0103 85.2866 0
M  V30 55 H  25.2624 39.7366 84.3513 0
M  V30 56 H  23.5072 36.0198 85.5617 0
M  V30 57 H  24.5022 35.4484 83.3814 0
M  V30 58 H  29.3865 35.9127 81.5466 0
M  V30 59 H  28.5653 34.3555 81.6431 0
M  V30 60 H  29.6031 34.8848 82.9662 0
M  V30 61 H  27.1881 38.5021 84.7992 0
M  V30 END ATOM
M  V30 BEGIN BOND
M  V30 1 2 1 2
M  V30 2 1 1 7
M  V30 3 1 1 39
M  V30 4 1 2 3
M  V30 5 1 2 40
M  V30 6 2 3 4
M  V30 7 1 3 41
M  V30 8 1 4 5
M  V30 9 1 4 6
M  V30 10 2 6 7
M  V30 11 1 7 8
M  V30 12 1 8 9
M  V30 13 1 8 42
M  V30 14 2 9 10
M  V30 15 1 9 11
M  V30 16 1 11 12
M  V30 17 1 11 16
M  V30 18 1 11 43
M  V30 19 1 12 13
M  V30 20 1 12 17
M  V30 21 1 13 14
M  V30 22 1 13 44
M  V30 23 1 13 45
M  V30 24 1 14 15
M  V30 25 1 14 16
M  V30 26 1 14 46
M  V30 27 1 16 47
M  V30 28 1 16 48
M  V30 29 2 17 18
M  V30 30 1 17 19
M  V30 31 1 19 20
M  V30 32 1 19 49
M  V30 33 1 19 50
M  V30 34 1 20 21
M  V30 35 1 20 26
M  V30 36 2 21 22
M  V30 37 1 22 23
M  V30 38 1 22 27
M  V30 39 2 23 24
M  V30 40 1 23 25
M  V30 41 1 25 51
M  V30 42 1 25 52
M  V30 43 1 25 53
M  V30 44 2 26 27
M  V30 45 1 26 28
M  V30 46 1 27 31
M  V30 47 2 28 29
M  V30 48 1 28 54
M  V30 49 1 29 30
M  V30 50 1 29 55
M  V30 51 2 30 31
M  V30 52 1 30 32
M  V30 53 1 31 56
M  V30 54 2 32 33
M  V30 55 1 32 38
M  V30 56 1 33 34
M  V30 57 1 33 57
M  V30 58 2 34 35
M  V30 59 1 35 36
M  V30 60 1 35 37
M  V30 61 1 36 58
M  V30 62 1 36 59
M  V30 63 1 36 60
M  V30 64 2 37 38
M  V30 65 1 38 61
M  V30 END BOND
M  V30 END CTAB
M  END
> <s_m_entry_id>
2029

> <s_m_entry_name>
result.214

> <s_m_Source_Path>
D:\OneDrive - zju.edu.cn\DOC\A-Finished\LCK_VS\Planet\LCK-8617

> <s_m_Source_File>
glide-dock_SP_top1262_2_pv.maegz

> <i_m_Source_File_Index>
2029

> <PLANET_affinity>
8.611

> <i_lp_mmshare_version>
54117

> <i_f3d_flags>
0

> <s_epik_input>
QnJjMVtjSF1bY0hdW2NIXWMobjEpW05IXUMoPU8pW0NASF0yTihbQ0gyXVtDQEhdKEYpW0NIMl0yKUMoPU8pW0NIMl1uM25jKEMoPU8pW0NIM10pYyhjMzQpW2NIXWMoW2NIXVtjSF00KS1jNVtjSF1uYyhbQ0gzXSluW2NIXTU=

> <s_epik_cmdline>
J2VwaWtfcHl0aG9uJywgJy1waCcsICc3LjAnLCAnLXRuJywgJzgnLCAnLW1hJywgJzUwMCcsICctaW1hZScsICc8aW5maWxlLm1hZT4nLCAnLW9tYWUnLCAnPG91dGZpbGUubWFlPic=

> <r_epik_Ionization_Penalty>
  0.0000

> <r_epik_Ionization_Penalty_Charging>
  0.0000

> <r_epik_Ionization_Penalty_Neutral>
  0.0000

> <r_epik_State_Penalty>
  0.0000

> <r_epik_Charging_Adjusted_Penalty>
0

> <i_epik_Tot_Q>
0

> <i_epik_Tot_abs_Q>
0

> <s_lp_Force_Field>
S-OPLS

> <r_lp_Energy>
41.3147

> <b_lp_Chiralities_Consistent>
1

> <s_lp_Variant>
O=C([C@H]1N(C(CN2N=C(C(C)=O)C3=C2C=CC(C4=CN=C(C)N=C4)=C3)=O)C[C@H](F)C1)NC5=N...-1

> <s_i_glide_gridfile>
glide-grid_1

> <i_i_glide_lignum>
735

> <i_i_glide_rotatable_bonds>
8

> <r_i_docking_score>
-7.00026424357501

> <r_i_glide_ligand_efficiency>
-0.184217480094079

> <r_i_glide_ligand_efficiency_sa>
-0.61933463682781

> <r_i_glide_ligand_efficiency_ln>
-1.50946289782528

> <r_i_glide_gscore>
-7.00026424357501

> <r_i_glide_lipo>
-1.97632500992879

> <r_i_glide_hbond>
-0.312933266897465

> <r_i_glide_metal>
0

> <r_i_glide_rewards>
-0.519935776041916

> <r_i_glide_evdw>
-47.2949562072754

> <r_i_glide_ecoul>
-12.3324041366577

> <r_i_glide_erotb>
0.334502456390956

> <r_i_glide_esite>
-0.310964216235363

> <r_i_glide_emodel>
-83.0632481491816

> <r_i_glide_energy>
-59.6273603439331

> <r_i_glide_einternal>
8.67226314544678

> <i_i_glide_confnum>
153

> <i_i_glide_posenum>
129

> <r_i_glide_eff_state_penalty>
0

> <r_lp_tautomer_probability>
1

> <s_m_subgroup_title>
glide-dock_SP_top1262_2_pv

> <s_m_subgroupid>
glide-dock_SP_top1262_2_pv

> <b_m_subgroup_collapsed>
0

$$$$
